data_image0
_chemical_formula_structural       CaMg3CaMg3CaMg3CaMg3CaMg3CaMg3CaMg3CaMg3
_chemical_formula_sum              "Ca8 Mg24"
_cell_length_a       8.6
_cell_length_b       8.6
_cell_length_c       8.6
_cell_angle_alpha    90
_cell_angle_beta     90
_cell_angle_gamma    90

_space_group_name_H-M_alt    "P 1"
_space_group_IT_number       1

loop_
  _space_group_symop_operation_xyz
  'x, y, z'

loop_
  _atom_site_type_symbol
  _atom_site_label
  _atom_site_symmetry_multiplicity
  _atom_site_fract_x
  _atom_site_fract_y
  _atom_site_fract_z
  _atom_site_occupancy
  Ca  Ca1       1.0  0.00000  0.00000  0.00000  1.0000
  Mg  Mg1       1.0  0.00000  0.25000  0.25000  1.0000
  Mg  Mg2       1.0  0.25000  0.00000  0.25000  1.0000
  Mg  Mg3       1.0  0.25000  0.25000  0.00000  1.0000
  Ca  Ca2       1.0  0.00000  0.00000  0.50000  1.0000
  Mg  Mg4       1.0  0.00000  0.25000  0.75000  1.0000
  Mg  Mg5       1.0  0.25000  0.00000  0.75000  1.0000
  Mg  Mg6       1.0  0.25000  0.25000  0.50000  1.0000
  Ca  Ca3       1.0  0.00000  0.50000  0.00000  1.0000
  Mg  Mg7       1.0  0.00000  0.75000  0.25000  1.0000
  Mg  Mg8       1.0  0.25000  0.50000  0.25000  1.0000
  Mg  Mg9       1.0  0.25000  0.75000  0.00000  1.0000
  Ca  Ca4       1.0  0.00000  0.50000  0.50000  1.0000
  Mg  Mg10      1.0  0.00000  0.75000  0.75000  1.0000
  Mg  Mg11      1.0  0.25000  0.50000  0.75000  1.0000
  Mg  Mg12      1.0  0.25000  0.75000  0.50000  1.0000
  Ca  Ca5       1.0  0.50000  0.00000  0.00000  1.0000
  Mg  Mg13      1.0  0.50000  0.25000  0.25000  1.0000
  Mg  Mg14      1.0  0.75000  0.00000  0.25000  1.0000
  Mg  Mg15      1.0  0.75000  0.25000  0.00000  1.0000
  Ca  Ca6       1.0  0.50000  0.00000  0.50000  1.0000
  Mg  Mg16      1.0  0.50000  0.25000  0.75000  1.0000
  Mg  Mg17      1.0  0.75000  0.00000  0.75000  1.0000
  Mg  Mg18      1.0  0.75000  0.25000  0.50000  1.0000
  Ca  Ca7       1.0  0.50000  0.50000  0.00000  1.0000
  Mg  Mg19      1.0  0.50000  0.75000  0.25000  1.0000
  Mg  Mg20      1.0  0.75000  0.50000  0.25000  1.0000
  Mg  Mg21      1.0  0.75000  0.75000  0.00000  1.0000
  Ca  Ca8       1.0  0.50000  0.50000  0.50000  1.0000
  Mg  Mg22      1.0  0.50000  0.75000  0.75000  1.0000
  Mg  Mg23      1.0  0.75000  0.50000  0.75000  1.0000
  Mg  Mg24      1.0  0.75000  0.75000  0.50000  1.0000
