data_image0
_chemical_formula_structural       Pt2
_chemical_formula_sum              "Pt2"
_cell_length_a       1.728
_cell_length_b       1.728
_cell_length_c       1.296
_cell_angle_alpha    90
_cell_angle_beta     90
_cell_angle_gamma    120

_space_group_name_H-M_alt    "P 1"
_space_group_IT_number       1

loop_
  _space_group_symop_operation_xyz
  'x, y, z'

loop_
  _atom_site_type_symbol
  _atom_site_label
  _atom_site_symmetry_multiplicity
  _atom_site_fract_x
  _atom_site_fract_y
  _atom_site_fract_z
  _atom_site_occupancy
  Pt  Pt1       1.0  0.38580  0.77160  0.86806  1.0000
  Pt  Pt2       1.0  0.77160  0.38580  0.28935  1.0000
