data_image0
_chemical_formula_structural       TiW2TiWTaWTaWTiTaW2TiWTi2TaW4TiW11Ti2W6TiWTiWTiTaW2TiW2TaW4TaWTi2TaTi
_chemical_formula_sum              "Ti16 W40 Ta8"
_cell_length_a       10.9466
_cell_length_b       10.9466
_cell_length_c       10.9466
_cell_angle_alpha    109.471
_cell_angle_beta     109.471
_cell_angle_gamma    109.471

_space_group_name_H-M_alt    "P 1"
_space_group_IT_number       1

loop_
  _space_group_symop_operation_xyz
  'x, y, z'

loop_
  _atom_site_type_symbol
  _atom_site_label
  _atom_site_symmetry_multiplicity
  _atom_site_fract_x
  _atom_site_fract_y
  _atom_site_fract_z
  _atom_site_occupancy
  Ti  Ti1       1.0  0.00000  0.00000  0.00000  1.0000
  W   W1        1.0  0.00000  0.00000  0.25000  1.0000
  W   W2        1.0  1.00000  0.00000  0.50000  1.0000
  Ti  Ti2       1.0  0.00000  0.00000  0.75000  1.0000
  W   W3        1.0  0.00000  0.25000  0.00000  1.0000
  Ta  Ta1       1.0  1.00000  0.25000  0.25000  1.0000
  W   W4        1.0  1.00000  0.25000  0.50000  1.0000
  Ta  Ta2       1.0  0.00000  0.25000  0.75000  1.0000
  W   W5        1.0  1.00000  0.50000  0.00000  1.0000
  Ti  Ti3       1.0  1.00000  0.50000  0.25000  1.0000
  Ta  Ta3       1.0  1.00000  0.50000  0.50000  1.0000
  W   W6        1.0  1.00000  0.50000  0.75000  1.0000
  W   W7        1.0  0.00000  0.75000  0.00000  1.0000
  Ti  Ti4       1.0  0.00000  0.75000  0.25000  1.0000
  W   W8        1.0  0.00000  0.75000  0.50000  1.0000
  Ti  Ti5       1.0  1.00000  0.75000  0.75000  1.0000
  Ti  Ti6       1.0  0.25000  0.00000  0.00000  1.0000
  Ta  Ta4       1.0  0.25000  0.00000  0.25000  1.0000
  W   W9        1.0  0.25000  0.00000  0.50000  1.0000
  W   W10       1.0  0.25000  0.00000  0.75000  1.0000
  W   W11       1.0  0.25000  0.25000  0.00000  1.0000
  W   W12       1.0  0.25000  0.25000  0.25000  1.0000
  Ti  Ti7       1.0  0.25000  0.25000  0.50000  1.0000
  W   W13       1.0  0.25000  0.25000  0.75000  1.0000
  W   W14       1.0  0.25000  0.50000  0.00000  1.0000
  W   W15       1.0  0.25000  0.50000  0.25000  1.0000
  W   W16       1.0  0.25000  0.50000  0.50000  1.0000
  W   W17       1.0  0.25000  0.50000  0.75000  1.0000
  W   W18       1.0  0.25000  0.75000  0.00000  1.0000
  W   W19       1.0  0.25000  0.75000  0.25000  1.0000
  W   W20       1.0  0.25000  0.75000  0.50000  1.0000
  W   W21       1.0  0.25000  0.75000  0.75000  1.0000
  W   W22       1.0  0.50000  0.00000  0.00000  1.0000
  W   W23       1.0  0.50000  0.00000  0.25000  1.0000
  Ti  Ti8       1.0  0.50000  0.00000  0.50000  1.0000
  Ti  Ti9       1.0  0.50000  0.00000  0.75000  1.0000
  W   W24       1.0  0.50000  0.25000  0.00000  1.0000
  W   W25       1.0  0.50000  0.25000  0.25000  1.0000
  W   W26       1.0  0.50000  0.25000  0.50000  1.0000
  W   W27       1.0  0.50000  0.25000  0.75000  1.0000
  W   W28       1.0  0.50000  0.50000  0.00000  1.0000
  W   W29       1.0  0.50000  0.50000  0.25000  1.0000
  Ti  Ti10      1.0  0.50000  0.50000  0.50000  1.0000
  W   W30       1.0  0.50000  0.50000  0.75000  1.0000
  Ti  Ti11      1.0  0.50000  0.75000  0.00000  1.0000
  W   W31       1.0  0.50000  0.75000  0.25000  1.0000
  Ti  Ti12      1.0  0.50000  0.75000  0.50000  1.0000
  Ta  Ta5       1.0  0.50000  0.75000  0.75000  1.0000
  W   W32       1.0  0.75000  0.00000  0.00000  1.0000
  W   W33       1.0  0.75000  0.00000  0.25000  1.0000
  Ti  Ti13      1.0  0.75000  0.00000  0.50000  1.0000
  W   W34       1.0  0.75000  0.00000  0.75000  1.0000
  W   W35       1.0  0.75000  0.25000  0.00000  1.0000
  Ta  Ta6       1.0  0.75000  0.25000  0.25000  1.0000
  W   W36       1.0  0.75000  0.25000  0.50000  1.0000
  W   W37       1.0  0.75000  0.25000  0.75000  1.0000
  W   W38       1.0  0.75000  0.50000  0.00000  1.0000
  W   W39       1.0  0.75000  0.50000  0.25000  1.0000
  Ta  Ta7       1.0  0.75000  0.50000  0.50000  1.0000
  W   W40       1.0  0.75000  0.50000  0.75000  1.0000
  Ti  Ti14      1.0  0.75000  0.75000  0.00000  1.0000
  Ti  Ti15      1.0  0.75000  0.75000  0.25000  1.0000
  Ta  Ta8       1.0  0.75000  0.75000  0.50000  1.0000
  Ti  Ti16      1.0  0.75000  0.75000  0.75000  1.0000
