data_image0
_chemical_formula_structural       NbMoNbMoNbMoWMo4W4MoWNbMo3WMo2WMo5WMoNbMo4WMo7Nb2MoNbWMo2W2Mo2W2Mo2WMo3
_chemical_formula_sum              "Nb8 Mo40 W16"
_cell_length_a       10.9466
_cell_length_b       10.9466
_cell_length_c       10.9466
_cell_angle_alpha    109.471
_cell_angle_beta     109.471
_cell_angle_gamma    109.471

_space_group_name_H-M_alt    "P 1"
_space_group_IT_number       1

loop_
  _space_group_symop_operation_xyz
  'x, y, z'

loop_
  _atom_site_type_symbol
  _atom_site_label
  _atom_site_symmetry_multiplicity
  _atom_site_fract_x
  _atom_site_fract_y
  _atom_site_fract_z
  _atom_site_occupancy
  Nb  Nb1       1.0  0.00000  0.00000  0.00000  1.0000
  Mo  Mo1       1.0  0.00000  0.00000  0.25000  1.0000
  Nb  Nb2       1.0  1.00000  0.00000  0.50000  1.0000
  Mo  Mo2       1.0  0.00000  0.00000  0.75000  1.0000
  Nb  Nb3       1.0  0.00000  0.25000  0.00000  1.0000
  Mo  Mo3       1.0  1.00000  0.25000  0.25000  1.0000
  W   W1        1.0  1.00000  0.25000  0.50000  1.0000
  Mo  Mo4       1.0  0.00000  0.25000  0.75000  1.0000
  Mo  Mo5       1.0  1.00000  0.50000  0.00000  1.0000
  Mo  Mo6       1.0  1.00000  0.50000  0.25000  1.0000
  Mo  Mo7       1.0  1.00000  0.50000  0.50000  1.0000
  W   W2        1.0  1.00000  0.50000  0.75000  1.0000
  W   W3        1.0  0.00000  0.75000  0.00000  1.0000
  W   W4        1.0  0.00000  0.75000  0.25000  1.0000
  W   W5        1.0  0.00000  0.75000  0.50000  1.0000
  Mo  Mo8       1.0  1.00000  0.75000  0.75000  1.0000
  W   W6        1.0  0.25000  0.00000  0.00000  1.0000
  Nb  Nb4       1.0  0.25000  0.00000  0.25000  1.0000
  Mo  Mo9       1.0  0.25000  0.00000  0.50000  1.0000
  Mo  Mo10      1.0  0.25000  0.00000  0.75000  1.0000
  Mo  Mo11      1.0  0.25000  0.25000  0.00000  1.0000
  W   W7        1.0  0.25000  0.25000  0.25000  1.0000
  Mo  Mo12      1.0  0.25000  0.25000  0.50000  1.0000
  Mo  Mo13      1.0  0.25000  0.25000  0.75000  1.0000
  W   W8        1.0  0.25000  0.50000  0.00000  1.0000
  Mo  Mo14      1.0  0.25000  0.50000  0.25000  1.0000
  Mo  Mo15      1.0  0.25000  0.50000  0.50000  1.0000
  Mo  Mo16      1.0  0.25000  0.50000  0.75000  1.0000
  Mo  Mo17      1.0  0.25000  0.75000  0.00000  1.0000
  Mo  Mo18      1.0  0.25000  0.75000  0.25000  1.0000
  W   W9        1.0  0.25000  0.75000  0.50000  1.0000
  Mo  Mo19      1.0  0.25000  0.75000  0.75000  1.0000
  Nb  Nb5       1.0  0.50000  0.00000  0.00000  1.0000
  Mo  Mo20      1.0  0.50000  0.00000  0.25000  1.0000
  Mo  Mo21      1.0  0.50000  0.00000  0.50000  1.0000
  Mo  Mo22      1.0  0.50000  0.00000  0.75000  1.0000
  Mo  Mo23      1.0  0.50000  0.25000  0.00000  1.0000
  W   W10       1.0  0.50000  0.25000  0.25000  1.0000
  Mo  Mo24      1.0  0.50000  0.25000  0.50000  1.0000
  Mo  Mo25      1.0  0.50000  0.25000  0.75000  1.0000
  Mo  Mo26      1.0  0.50000  0.50000  0.00000  1.0000
  Mo  Mo27      1.0  0.50000  0.50000  0.25000  1.0000
  Mo  Mo28      1.0  0.50000  0.50000  0.50000  1.0000
  Mo  Mo29      1.0  0.50000  0.50000  0.75000  1.0000
  Mo  Mo30      1.0  0.50000  0.75000  0.00000  1.0000
  Nb  Nb6       1.0  0.50000  0.75000  0.25000  1.0000
  Nb  Nb7       1.0  0.50000  0.75000  0.50000  1.0000
  Mo  Mo31      1.0  0.50000  0.75000  0.75000  1.0000
  Nb  Nb8       1.0  0.75000  0.00000  0.00000  1.0000
  W   W11       1.0  0.75000  0.00000  0.25000  1.0000
  Mo  Mo32      1.0  0.75000  0.00000  0.50000  1.0000
  Mo  Mo33      1.0  0.75000  0.00000  0.75000  1.0000
  W   W12       1.0  0.75000  0.25000  0.00000  1.0000
  W   W13       1.0  0.75000  0.25000  0.25000  1.0000
  Mo  Mo34      1.0  0.75000  0.25000  0.50000  1.0000
  Mo  Mo35      1.0  0.75000  0.25000  0.75000  1.0000
  W   W14       1.0  0.75000  0.50000  0.00000  1.0000
  W   W15       1.0  0.75000  0.50000  0.25000  1.0000
  Mo  Mo36      1.0  0.75000  0.50000  0.50000  1.0000
  Mo  Mo37      1.0  0.75000  0.50000  0.75000  1.0000
  W   W16       1.0  0.75000  0.75000  0.00000  1.0000
  Mo  Mo38      1.0  0.75000  0.75000  0.25000  1.0000
  Mo  Mo39      1.0  0.75000  0.75000  0.50000  1.0000
  Mo  Mo40      1.0  0.75000  0.75000  0.75000  1.0000
