data_image0
_chemical_formula_structural       Nb3Ti3Nb17MoNb3Mo2Nb6MoNb7TiNbMoTiNb5Mo2Nb2TiMoNb3Ti2Nb
_chemical_formula_sum              "Nb48 Ti8 Mo8"
_cell_length_a       10.9466
_cell_length_b       10.9466
_cell_length_c       10.9466
_cell_angle_alpha    109.471
_cell_angle_beta     109.471
_cell_angle_gamma    109.471

_space_group_name_H-M_alt    "P 1"
_space_group_IT_number       1

loop_
  _space_group_symop_operation_xyz
  'x, y, z'

loop_
  _atom_site_type_symbol
  _atom_site_label
  _atom_site_symmetry_multiplicity
  _atom_site_fract_x
  _atom_site_fract_y
  _atom_site_fract_z
  _atom_site_occupancy
  Nb  Nb1       1.0  0.00000  0.00000  0.00000  1.0000
  Nb  Nb2       1.0  0.00000  0.00000  0.25000  1.0000
  Nb  Nb3       1.0  1.00000  0.00000  0.50000  1.0000
  Ti  Ti1       1.0  0.00000  0.00000  0.75000  1.0000
  Ti  Ti2       1.0  0.00000  0.25000  0.00000  1.0000
  Ti  Ti3       1.0  1.00000  0.25000  0.25000  1.0000
  Nb  Nb4       1.0  1.00000  0.25000  0.50000  1.0000
  Nb  Nb5       1.0  0.00000  0.25000  0.75000  1.0000
  Nb  Nb6       1.0  1.00000  0.50000  0.00000  1.0000
  Nb  Nb7       1.0  1.00000  0.50000  0.25000  1.0000
  Nb  Nb8       1.0  1.00000  0.50000  0.50000  1.0000
  Nb  Nb9       1.0  1.00000  0.50000  0.75000  1.0000
  Nb  Nb10      1.0  0.00000  0.75000  0.00000  1.0000
  Nb  Nb11      1.0  0.00000  0.75000  0.25000  1.0000
  Nb  Nb12      1.0  0.00000  0.75000  0.50000  1.0000
  Nb  Nb13      1.0  1.00000  0.75000  0.75000  1.0000
  Nb  Nb14      1.0  0.25000  0.00000  0.00000  1.0000
  Nb  Nb15      1.0  0.25000  0.00000  0.25000  1.0000
  Nb  Nb16      1.0  0.25000  0.00000  0.50000  1.0000
  Nb  Nb17      1.0  0.25000  0.00000  0.75000  1.0000
  Nb  Nb18      1.0  0.25000  0.25000  0.00000  1.0000
  Nb  Nb19      1.0  0.25000  0.25000  0.25000  1.0000
  Nb  Nb20      1.0  0.25000  0.25000  0.50000  1.0000
  Mo  Mo1       1.0  0.25000  0.25000  0.75000  1.0000
  Nb  Nb21      1.0  0.25000  0.50000  0.00000  1.0000
  Nb  Nb22      1.0  0.25000  0.50000  0.25000  1.0000
  Nb  Nb23      1.0  0.25000  0.50000  0.50000  1.0000
  Mo  Mo2       1.0  0.25000  0.50000  0.75000  1.0000
  Mo  Mo3       1.0  0.25000  0.75000  0.00000  1.0000
  Nb  Nb24      1.0  0.25000  0.75000  0.25000  1.0000
  Nb  Nb25      1.0  0.25000  0.75000  0.50000  1.0000
  Nb  Nb26      1.0  0.25000  0.75000  0.75000  1.0000
  Nb  Nb27      1.0  0.50000  0.00000  0.00000  1.0000
  Nb  Nb28      1.0  0.50000  0.00000  0.25000  1.0000
  Nb  Nb29      1.0  0.50000  0.00000  0.50000  1.0000
  Mo  Mo4       1.0  0.50000  0.00000  0.75000  1.0000
  Nb  Nb30      1.0  0.50000  0.25000  0.00000  1.0000
  Nb  Nb31      1.0  0.50000  0.25000  0.25000  1.0000
  Nb  Nb32      1.0  0.50000  0.25000  0.50000  1.0000
  Nb  Nb33      1.0  0.50000  0.25000  0.75000  1.0000
  Nb  Nb34      1.0  0.50000  0.50000  0.00000  1.0000
  Nb  Nb35      1.0  0.50000  0.50000  0.25000  1.0000
  Nb  Nb36      1.0  0.50000  0.50000  0.50000  1.0000
  Ti  Ti4       1.0  0.50000  0.50000  0.75000  1.0000
  Nb  Nb37      1.0  0.50000  0.75000  0.00000  1.0000
  Mo  Mo5       1.0  0.50000  0.75000  0.25000  1.0000
  Ti  Ti5       1.0  0.50000  0.75000  0.50000  1.0000
  Nb  Nb38      1.0  0.50000  0.75000  0.75000  1.0000
  Nb  Nb39      1.0  0.75000  0.00000  0.00000  1.0000
  Nb  Nb40      1.0  0.75000  0.00000  0.25000  1.0000
  Nb  Nb41      1.0  0.75000  0.00000  0.50000  1.0000
  Nb  Nb42      1.0  0.75000  0.00000  0.75000  1.0000
  Mo  Mo6       1.0  0.75000  0.25000  0.00000  1.0000
  Mo  Mo7       1.0  0.75000  0.25000  0.25000  1.0000
  Nb  Nb43      1.0  0.75000  0.25000  0.50000  1.0000
  Nb  Nb44      1.0  0.75000  0.25000  0.75000  1.0000
  Ti  Ti6       1.0  0.75000  0.50000  0.00000  1.0000
  Mo  Mo8       1.0  0.75000  0.50000  0.25000  1.0000
  Nb  Nb45      1.0  0.75000  0.50000  0.50000  1.0000
  Nb  Nb46      1.0  0.75000  0.50000  0.75000  1.0000
  Nb  Nb47      1.0  0.75000  0.75000  0.00000  1.0000
  Ti  Ti7       1.0  0.75000  0.75000  0.25000  1.0000
  Ti  Ti8       1.0  0.75000  0.75000  0.50000  1.0000
  Nb  Nb48      1.0  0.75000  0.75000  0.75000  1.0000
