data_image0
_chemical_formula_structural       Cr9
_chemical_formula_sum              "Cr9"
_cell_length_a       6.85757
_cell_length_b       7.22852
_cell_length_c       2.28586
_cell_angle_alpha    90
_cell_angle_beta     90
_cell_angle_gamma    71.5651

_space_group_name_H-M_alt    "P 1"
_space_group_IT_number       1

loop_
  _space_group_symop_operation_xyz
  'x, y, z'

loop_
  _atom_site_type_symbol
  _atom_site_label
  _atom_site_symmetry_multiplicity
  _atom_site_fract_x
  _atom_site_fract_y
  _atom_site_fract_z
  _atom_site_occupancy
  Cr  Cr1       1.0  0.82585  0.53768  0.31820  1.0000
  Cr  Cr2       1.0  0.94826  0.61471  0.81685  1.0000
  Cr  Cr3       1.0  0.82593  0.99010  0.31893  1.0000
  Cr  Cr4       1.0  0.83079  0.76406  0.31845  1.0000
  Cr  Cr5       1.0  0.07119  0.91963  0.32543  1.0000
  Cr  Cr6       1.0  0.95372  0.83824  0.82163  1.0000
  Cr  Cr7       1.0  0.82340  0.21772  0.31969  1.0000
  Cr  Cr8       1.0  0.94739  0.07022  0.82183  1.0000
  Cr  Cr9       1.0  0.81396  0.38039  0.81697  1.0000
