data_image0
_chemical_formula_structural       Cr8
_chemical_formula_sum              "Cr8"
_cell_length_a       4.57172
_cell_length_b       5.11133
_cell_length_c       5.11133
_cell_angle_alpha    78.463
_cell_angle_beta     63.4349
_cell_angle_gamma    63.4349

_space_group_name_H-M_alt    "P 1"
_space_group_IT_number       1

loop_
  _space_group_symop_operation_xyz
  'x, y, z'

loop_
  _atom_site_type_symbol
  _atom_site_label
  _atom_site_symmetry_multiplicity
  _atom_site_fract_x
  _atom_site_fract_y
  _atom_site_fract_z
  _atom_site_occupancy
  Cr  Cr1       1.0  0.43628  0.37886  0.14818  1.0000
  Cr  Cr2       1.0  0.69376  0.78476  0.40994  1.0000
  Cr  Cr3       1.0  0.05068  0.40652  0.40970  1.0000
  Cr  Cr4       1.0  0.62198  0.49212  0.56411  1.0000
  Cr  Cr5       1.0  0.80276  0.63082  0.68402  1.0000
  Cr  Cr6       1.0  0.41375  0.12327  0.40161  1.0000
  Cr  Cr7       1.0  0.33760  0.44798  0.48622  1.0000
  Cr  Cr8       1.0  0.76505  0.32420  0.82104  1.0000
