data_image0
_chemical_formula_structural       WTaTi2TaWMo2WTaTiTaMoWTa3W2Ta4TiTaTiWTiMoTi2WTaWTiMoTa2WTiTa2WTiTa3WTi2Ta2MoW3Ti2WTaTiTaMo2
_chemical_formula_sum              "W16 Ta24 Ti16 Mo8"
_cell_length_a       10.9466
_cell_length_b       10.9466
_cell_length_c       10.9466
_cell_angle_alpha    109.471
_cell_angle_beta     109.471
_cell_angle_gamma    109.471

_space_group_name_H-M_alt    "P 1"
_space_group_IT_number       1

loop_
  _space_group_symop_operation_xyz
  'x, y, z'

loop_
  _atom_site_type_symbol
  _atom_site_label
  _atom_site_symmetry_multiplicity
  _atom_site_fract_x
  _atom_site_fract_y
  _atom_site_fract_z
  _atom_site_occupancy
  W   W1        1.0  0.00000  0.00000  0.00000  1.0000
  Ta  Ta1       1.0  0.00000  0.00000  0.25000  1.0000
  Ti  Ti1       1.0  1.00000  0.00000  0.50000  1.0000
  Ti  Ti2       1.0  0.00000  0.00000  0.75000  1.0000
  Ta  Ta2       1.0  0.00000  0.25000  0.00000  1.0000
  W   W2        1.0  1.00000  0.25000  0.25000  1.0000
  Mo  Mo1       1.0  1.00000  0.25000  0.50000  1.0000
  Mo  Mo2       1.0  0.00000  0.25000  0.75000  1.0000
  W   W3        1.0  1.00000  0.50000  0.00000  1.0000
  Ta  Ta3       1.0  1.00000  0.50000  0.25000  1.0000
  Ti  Ti3       1.0  1.00000  0.50000  0.50000  1.0000
  Ta  Ta4       1.0  1.00000  0.50000  0.75000  1.0000
  Mo  Mo3       1.0  0.00000  0.75000  0.00000  1.0000
  W   W4        1.0  0.00000  0.75000  0.25000  1.0000
  Ta  Ta5       1.0  0.00000  0.75000  0.50000  1.0000
  Ta  Ta6       1.0  1.00000  0.75000  0.75000  1.0000
  Ta  Ta7       1.0  0.25000  0.00000  0.00000  1.0000
  W   W5        1.0  0.25000  0.00000  0.25000  1.0000
  W   W6        1.0  0.25000  0.00000  0.50000  1.0000
  Ta  Ta8       1.0  0.25000  0.00000  0.75000  1.0000
  Ta  Ta9       1.0  0.25000  0.25000  0.00000  1.0000
  Ta  Ta10      1.0  0.25000  0.25000  0.25000  1.0000
  Ta  Ta11      1.0  0.25000  0.25000  0.50000  1.0000
  Ti  Ti4       1.0  0.25000  0.25000  0.75000  1.0000
  Ta  Ta12      1.0  0.25000  0.50000  0.00000  1.0000
  Ti  Ti5       1.0  0.25000  0.50000  0.25000  1.0000
  W   W7        1.0  0.25000  0.50000  0.50000  1.0000
  Ti  Ti6       1.0  0.25000  0.50000  0.75000  1.0000
  Mo  Mo4       1.0  0.25000  0.75000  0.00000  1.0000
  Ti  Ti7       1.0  0.25000  0.75000  0.25000  1.0000
  Ti  Ti8       1.0  0.25000  0.75000  0.50000  1.0000
  W   W8        1.0  0.25000  0.75000  0.75000  1.0000
  Ta  Ta13      1.0  0.50000  0.00000  0.00000  1.0000
  W   W9        1.0  0.50000  0.00000  0.25000  1.0000
  Ti  Ti9       1.0  0.50000  0.00000  0.50000  1.0000
  Mo  Mo5       1.0  0.50000  0.00000  0.75000  1.0000
  Ta  Ta14      1.0  0.50000  0.25000  0.00000  1.0000
  Ta  Ta15      1.0  0.50000  0.25000  0.25000  1.0000
  W   W10       1.0  0.50000  0.25000  0.50000  1.0000
  Ti  Ti10      1.0  0.50000  0.25000  0.75000  1.0000
  Ta  Ta16      1.0  0.50000  0.50000  0.00000  1.0000
  Ta  Ta17      1.0  0.50000  0.50000  0.25000  1.0000
  W   W11       1.0  0.50000  0.50000  0.50000  1.0000
  Ti  Ti11      1.0  0.50000  0.50000  0.75000  1.0000
  Ta  Ta18      1.0  0.50000  0.75000  0.00000  1.0000
  Ta  Ta19      1.0  0.50000  0.75000  0.25000  1.0000
  Ta  Ta20      1.0  0.50000  0.75000  0.50000  1.0000
  W   W12       1.0  0.50000  0.75000  0.75000  1.0000
  Ti  Ti12      1.0  0.75000  0.00000  0.00000  1.0000
  Ti  Ti13      1.0  0.75000  0.00000  0.25000  1.0000
  Ta  Ta21      1.0  0.75000  0.00000  0.50000  1.0000
  Ta  Ta22      1.0  0.75000  0.00000  0.75000  1.0000
  Mo  Mo6       1.0  0.75000  0.25000  0.00000  1.0000
  W   W13       1.0  0.75000  0.25000  0.25000  1.0000
  W   W14       1.0  0.75000  0.25000  0.50000  1.0000
  W   W15       1.0  0.75000  0.25000  0.75000  1.0000
  Ti  Ti14      1.0  0.75000  0.50000  0.00000  1.0000
  Ti  Ti15      1.0  0.75000  0.50000  0.25000  1.0000
  W   W16       1.0  0.75000  0.50000  0.50000  1.0000
  Ta  Ta23      1.0  0.75000  0.50000  0.75000  1.0000
  Ti  Ti16      1.0  0.75000  0.75000  0.00000  1.0000
  Ta  Ta24      1.0  0.75000  0.75000  0.25000  1.0000
  Mo  Mo7       1.0  0.75000  0.75000  0.50000  1.0000
  Mo  Mo8       1.0  0.75000  0.75000  0.75000  1.0000
