data_image0
_chemical_formula_structural       W5
_chemical_formula_sum              "W5"
_cell_length_a       2.50809
_cell_length_b       2.50809
_cell_length_c       14.6246
_cell_angle_alpha    59.0362
_cell_angle_beta     90
_cell_angle_gamma    90

_space_group_name_H-M_alt    "P 1"
_space_group_IT_number       1

loop_
  _space_group_symop_operation_xyz
  'x, y, z'

loop_
  _atom_site_type_symbol
  _atom_site_label
  _atom_site_symmetry_multiplicity
  _atom_site_fract_x
  _atom_site_fract_y
  _atom_site_fract_z
  _atom_site_occupancy
  W   W1        1.0  0.23358  0.66752  0.39978  1.0000
  W   W2        1.0  0.70952  0.11473  0.40216  1.0000
  W   W3        1.0  0.69847  0.12962  0.40214  1.0000
  W   W4        1.0  0.70890  0.76258  0.52334  1.0000
  W   W5        1.0  0.29158  0.28778  0.78955  1.0000
