data_image0
_chemical_formula_structural       W5Li
_chemical_formula_sum              "W5 Li1"
_cell_length_a       2.50809
_cell_length_b       7.93129
_cell_length_c       5.60827
_cell_angle_alpha    64.8959
_cell_angle_beta     90
_cell_angle_gamma    71.5651

_space_group_name_H-M_alt    "P 1"
_space_group_IT_number       1

loop_
  _space_group_symop_operation_xyz
  'x, y, z'

loop_
  _atom_site_type_symbol
  _atom_site_label
  _atom_site_symmetry_multiplicity
  _atom_site_fract_x
  _atom_site_fract_y
  _atom_site_fract_z
  _atom_site_occupancy
  W   W1        1.0  0.38124  0.70079  0.94260  1.0000
  W   W2        1.0  0.59743  0.98376  0.57923  1.0000
  W   W3        1.0  0.85104  0.23015  0.16278  1.0000
  W   W4        1.0  0.08769  0.49438  0.76216  1.0000
  W   W5        1.0  0.86077  0.22273  0.70938  1.0000
  Li  Li1       1.0  0.30052  0.78102  0.38917  1.0000
