data_image0
_chemical_formula_structural       W3Li3
_chemical_formula_sum              "W3 Li3"
_cell_length_a       2.50809
_cell_length_b       7.52428
_cell_length_c       5.60827
_cell_angle_alpha    63.4349
_cell_angle_beta     90
_cell_angle_gamma    90

_space_group_name_H-M_alt    "P 1"
_space_group_IT_number       1

loop_
  _space_group_symop_operation_xyz
  'x, y, z'

loop_
  _atom_site_type_symbol
  _atom_site_label
  _atom_site_symmetry_multiplicity
  _atom_site_fract_x
  _atom_site_fract_y
  _atom_site_fract_z
  _atom_site_occupancy
  W   W1        1.0  0.78686  0.63392  0.26189  1.0000
  W   W2        1.0  0.29341  0.35749  0.20722  1.0000
  W   W3        1.0  0.29338  0.55746  0.69400  1.0000
  Li  Li1       1.0  0.79441  0.27616  0.64680  1.0000
  Li  Li2       1.0  0.79665  0.88959  0.44597  1.0000
  Li  Li3       1.0  0.29500  0.97016  0.99707  1.0000
