data_image0
_chemical_formula_structural       LiWLi4WLi2
_chemical_formula_sum              "Li7 W2"
_cell_length_a       22.5728
_cell_length_b       2.50809
_cell_length_c       2.50809
_cell_angle_alpha    90
_cell_angle_beta     90
_cell_angle_gamma    90

_space_group_name_H-M_alt    "P 1"
_space_group_IT_number       1

loop_
  _space_group_symop_operation_xyz
  'x, y, z'

loop_
  _atom_site_type_symbol
  _atom_site_label
  _atom_site_symmetry_multiplicity
  _atom_site_fract_x
  _atom_site_fract_y
  _atom_site_fract_z
  _atom_site_occupancy
  Li  Li1       1.0  0.05205  0.25388  0.07193  1.0000
  W   W1        1.0  0.29514  0.99695  0.90625  1.0000
  Li  Li2       1.0  0.37807  0.49637  0.40749  1.0000
  Li  Li3       1.0  0.63986  0.99671  0.14050  1.0000
  Li  Li4       1.0  0.55662  0.49691  0.64048  1.0000
  Li  Li5       1.0  0.46115  0.99745  0.90784  1.0000
  W   W2        1.0  0.95339  0.75499  0.21053  1.0000
  Li  Li6       1.0  0.78719  0.75510  0.20852  1.0000
  Li  Li7       1.0  0.87056  0.25536  0.70910  1.0000
