data_image0
_chemical_formula_structural       W6Li
_chemical_formula_sum              "W6 Li1"
_cell_length_a       2.50809
_cell_length_b       2.50809
_cell_length_c       18.4306
_cell_angle_alpha    82.1788
_cell_angle_beta     74.2068
_cell_angle_gamma    90

_space_group_name_H-M_alt    "P 1"
_space_group_IT_number       1

loop_
  _space_group_symop_operation_xyz
  'x, y, z'

loop_
  _atom_site_type_symbol
  _atom_site_label
  _atom_site_symmetry_multiplicity
  _atom_site_fract_x
  _atom_site_fract_y
  _atom_site_fract_z
  _atom_site_occupancy
  W   W1        1.0  0.58582  0.60435  0.42224  1.0000
  W   W2        1.0  0.51641  0.49681  0.96988  1.0000
  W   W3        1.0  0.51610  0.49106  0.96987  1.0000
  W   W4        1.0  0.34395  0.59729  0.73411  1.0000
  W   W5        1.0  0.84451  0.06278  0.96948  1.0000
  W   W6        1.0  0.08639  0.24954  0.63447  1.0000
  Li  Li1       1.0  0.83247  0.91157  0.53046  1.0000
