data_image0
_chemical_formula_structural       MoTa2MoTa3TiTaTiTa4NbTa3TiTa3NbTiMoNbTiTa5Ti2TaTiNbTa4MoTa2TiMoTa3TiTaMoTiMoTi2Nb2TiNbTiNbTiMo
_chemical_formula_sum              "Mo8 Ta32 Ti16 Nb8"
_cell_length_a       10.9466
_cell_length_b       10.9466
_cell_length_c       10.9466
_cell_angle_alpha    109.471
_cell_angle_beta     109.471
_cell_angle_gamma    109.471

_space_group_name_H-M_alt    "P 1"
_space_group_IT_number       1

loop_
  _space_group_symop_operation_xyz
  'x, y, z'

loop_
  _atom_site_type_symbol
  _atom_site_label
  _atom_site_symmetry_multiplicity
  _atom_site_fract_x
  _atom_site_fract_y
  _atom_site_fract_z
  _atom_site_occupancy
  Mo  Mo1       1.0  0.00000  0.00000  0.00000  1.0000
  Ta  Ta1       1.0  0.00000  0.00000  0.25000  1.0000
  Ta  Ta2       1.0  1.00000  0.00000  0.50000  1.0000
  Mo  Mo2       1.0  0.00000  0.00000  0.75000  1.0000
  Ta  Ta3       1.0  0.00000  0.25000  0.00000  1.0000
  Ta  Ta4       1.0  1.00000  0.25000  0.25000  1.0000
  Ta  Ta5       1.0  1.00000  0.25000  0.50000  1.0000
  Ti  Ti1       1.0  0.00000  0.25000  0.75000  1.0000
  Ta  Ta6       1.0  1.00000  0.50000  0.00000  1.0000
  Ti  Ti2       1.0  1.00000  0.50000  0.25000  1.0000
  Ta  Ta7       1.0  1.00000  0.50000  0.50000  1.0000
  Ta  Ta8       1.0  1.00000  0.50000  0.75000  1.0000
  Ta  Ta9       1.0  0.00000  0.75000  0.00000  1.0000
  Ta  Ta10      1.0  0.00000  0.75000  0.25000  1.0000
  Nb  Nb1       1.0  0.00000  0.75000  0.50000  1.0000
  Ta  Ta11      1.0  1.00000  0.75000  0.75000  1.0000
  Ta  Ta12      1.0  0.25000  0.00000  0.00000  1.0000
  Ta  Ta13      1.0  0.25000  0.00000  0.25000  1.0000
  Ti  Ti3       1.0  0.25000  0.00000  0.50000  1.0000
  Ta  Ta14      1.0  0.25000  0.00000  0.75000  1.0000
  Ta  Ta15      1.0  0.25000  0.25000  0.00000  1.0000
  Ta  Ta16      1.0  0.25000  0.25000  0.25000  1.0000
  Nb  Nb2       1.0  0.25000  0.25000  0.50000  1.0000
  Ti  Ti4       1.0  0.25000  0.25000  0.75000  1.0000
  Mo  Mo3       1.0  0.25000  0.50000  0.00000  1.0000
  Nb  Nb3       1.0  0.25000  0.50000  0.25000  1.0000
  Ti  Ti5       1.0  0.25000  0.50000  0.50000  1.0000
  Ta  Ta17      1.0  0.25000  0.50000  0.75000  1.0000
  Ta  Ta18      1.0  0.25000  0.75000  0.00000  1.0000
  Ta  Ta19      1.0  0.25000  0.75000  0.25000  1.0000
  Ta  Ta20      1.0  0.25000  0.75000  0.50000  1.0000
  Ta  Ta21      1.0  0.25000  0.75000  0.75000  1.0000
  Ti  Ti6       1.0  0.50000  0.00000  0.00000  1.0000
  Ti  Ti7       1.0  0.50000  0.00000  0.25000  1.0000
  Ta  Ta22      1.0  0.50000  0.00000  0.50000  1.0000
  Ti  Ti8       1.0  0.50000  0.00000  0.75000  1.0000
  Nb  Nb4       1.0  0.50000  0.25000  0.00000  1.0000
  Ta  Ta23      1.0  0.50000  0.25000  0.25000  1.0000
  Ta  Ta24      1.0  0.50000  0.25000  0.50000  1.0000
  Ta  Ta25      1.0  0.50000  0.25000  0.75000  1.0000
  Ta  Ta26      1.0  0.50000  0.50000  0.00000  1.0000
  Mo  Mo4       1.0  0.50000  0.50000  0.25000  1.0000
  Ta  Ta27      1.0  0.50000  0.50000  0.50000  1.0000
  Ta  Ta28      1.0  0.50000  0.50000  0.75000  1.0000
  Ti  Ti9       1.0  0.50000  0.75000  0.00000  1.0000
  Mo  Mo5       1.0  0.50000  0.75000  0.25000  1.0000
  Ta  Ta29      1.0  0.50000  0.75000  0.50000  1.0000
  Ta  Ta30      1.0  0.50000  0.75000  0.75000  1.0000
  Ta  Ta31      1.0  0.75000  0.00000  0.00000  1.0000
  Ti  Ti10      1.0  0.75000  0.00000  0.25000  1.0000
  Ta  Ta32      1.0  0.75000  0.00000  0.50000  1.0000
  Mo  Mo6       1.0  0.75000  0.00000  0.75000  1.0000
  Ti  Ti11      1.0  0.75000  0.25000  0.00000  1.0000
  Mo  Mo7       1.0  0.75000  0.25000  0.25000  1.0000
  Ti  Ti12      1.0  0.75000  0.25000  0.50000  1.0000
  Ti  Ti13      1.0  0.75000  0.25000  0.75000  1.0000
  Nb  Nb5       1.0  0.75000  0.50000  0.00000  1.0000
  Nb  Nb6       1.0  0.75000  0.50000  0.25000  1.0000
  Ti  Ti14      1.0  0.75000  0.50000  0.50000  1.0000
  Nb  Nb7       1.0  0.75000  0.50000  0.75000  1.0000
  Ti  Ti15      1.0  0.75000  0.75000  0.00000  1.0000
  Nb  Nb8       1.0  0.75000  0.75000  0.25000  1.0000
  Ti  Ti16      1.0  0.75000  0.75000  0.50000  1.0000
  Mo  Mo8       1.0  0.75000  0.75000  0.75000  1.0000
