data_image0
_chemical_formula_structural       Mo2TaMo2TaMoTaMoTa2Mo3TaMoTiMoTiMo3Ta3Mo5TaTi2Mo4TaMo2TaMo3TaMoTaMo2TaTiMo4TiTaMo4Ti2Mo
_chemical_formula_sum              "Mo40 Ta16 Ti8"
_cell_length_a       10.9466
_cell_length_b       10.9466
_cell_length_c       10.9466
_cell_angle_alpha    109.471
_cell_angle_beta     109.471
_cell_angle_gamma    109.471

_space_group_name_H-M_alt    "P 1"
_space_group_IT_number       1

loop_
  _space_group_symop_operation_xyz
  'x, y, z'

loop_
  _atom_site_type_symbol
  _atom_site_label
  _atom_site_symmetry_multiplicity
  _atom_site_fract_x
  _atom_site_fract_y
  _atom_site_fract_z
  _atom_site_occupancy
  Mo  Mo1       1.0  0.00000  0.00000  0.00000  1.0000
  Mo  Mo2       1.0  0.00000  0.00000  0.25000  1.0000
  Ta  Ta1       1.0  1.00000  0.00000  0.50000  1.0000
  Mo  Mo3       1.0  0.00000  0.00000  0.75000  1.0000
  Mo  Mo4       1.0  0.00000  0.25000  0.00000  1.0000
  Ta  Ta2       1.0  1.00000  0.25000  0.25000  1.0000
  Mo  Mo5       1.0  1.00000  0.25000  0.50000  1.0000
  Ta  Ta3       1.0  0.00000  0.25000  0.75000  1.0000
  Mo  Mo6       1.0  1.00000  0.50000  0.00000  1.0000
  Ta  Ta4       1.0  1.00000  0.50000  0.25000  1.0000
  Ta  Ta5       1.0  1.00000  0.50000  0.50000  1.0000
  Mo  Mo7       1.0  1.00000  0.50000  0.75000  1.0000
  Mo  Mo8       1.0  0.00000  0.75000  0.00000  1.0000
  Mo  Mo9       1.0  0.00000  0.75000  0.25000  1.0000
  Ta  Ta6       1.0  0.00000  0.75000  0.50000  1.0000
  Mo  Mo10      1.0  1.00000  0.75000  0.75000  1.0000
  Ti  Ti1       1.0  0.25000  0.00000  0.00000  1.0000
  Mo  Mo11      1.0  0.25000  0.00000  0.25000  1.0000
  Ti  Ti2       1.0  0.25000  0.00000  0.50000  1.0000
  Mo  Mo12      1.0  0.25000  0.00000  0.75000  1.0000
  Mo  Mo13      1.0  0.25000  0.25000  0.00000  1.0000
  Mo  Mo14      1.0  0.25000  0.25000  0.25000  1.0000
  Ta  Ta7       1.0  0.25000  0.25000  0.50000  1.0000
  Ta  Ta8       1.0  0.25000  0.25000  0.75000  1.0000
  Ta  Ta9       1.0  0.25000  0.50000  0.00000  1.0000
  Mo  Mo15      1.0  0.25000  0.50000  0.25000  1.0000
  Mo  Mo16      1.0  0.25000  0.50000  0.50000  1.0000
  Mo  Mo17      1.0  0.25000  0.50000  0.75000  1.0000
  Mo  Mo18      1.0  0.25000  0.75000  0.00000  1.0000
  Mo  Mo19      1.0  0.25000  0.75000  0.25000  1.0000
  Ta  Ta10      1.0  0.25000  0.75000  0.50000  1.0000
  Ti  Ti3       1.0  0.25000  0.75000  0.75000  1.0000
  Ti  Ti4       1.0  0.50000  0.00000  0.00000  1.0000
  Mo  Mo20      1.0  0.50000  0.00000  0.25000  1.0000
  Mo  Mo21      1.0  0.50000  0.00000  0.50000  1.0000
  Mo  Mo22      1.0  0.50000  0.00000  0.75000  1.0000
  Mo  Mo23      1.0  0.50000  0.25000  0.00000  1.0000
  Ta  Ta11      1.0  0.50000  0.25000  0.25000  1.0000
  Mo  Mo24      1.0  0.50000  0.25000  0.50000  1.0000
  Mo  Mo25      1.0  0.50000  0.25000  0.75000  1.0000
  Ta  Ta12      1.0  0.50000  0.50000  0.00000  1.0000
  Mo  Mo26      1.0  0.50000  0.50000  0.25000  1.0000
  Mo  Mo27      1.0  0.50000  0.50000  0.50000  1.0000
  Mo  Mo28      1.0  0.50000  0.50000  0.75000  1.0000
  Ta  Ta13      1.0  0.50000  0.75000  0.00000  1.0000
  Mo  Mo29      1.0  0.50000  0.75000  0.25000  1.0000
  Ta  Ta14      1.0  0.50000  0.75000  0.50000  1.0000
  Mo  Mo30      1.0  0.50000  0.75000  0.75000  1.0000
  Mo  Mo31      1.0  0.75000  0.00000  0.00000  1.0000
  Ta  Ta15      1.0  0.75000  0.00000  0.25000  1.0000
  Ti  Ti5       1.0  0.75000  0.00000  0.50000  1.0000
  Mo  Mo32      1.0  0.75000  0.00000  0.75000  1.0000
  Mo  Mo33      1.0  0.75000  0.25000  0.00000  1.0000
  Mo  Mo34      1.0  0.75000  0.25000  0.25000  1.0000
  Mo  Mo35      1.0  0.75000  0.25000  0.50000  1.0000
  Ti  Ti6       1.0  0.75000  0.25000  0.75000  1.0000
  Ta  Ta16      1.0  0.75000  0.50000  0.00000  1.0000
  Mo  Mo36      1.0  0.75000  0.50000  0.25000  1.0000
  Mo  Mo37      1.0  0.75000  0.50000  0.50000  1.0000
  Mo  Mo38      1.0  0.75000  0.50000  0.75000  1.0000
  Mo  Mo39      1.0  0.75000  0.75000  0.00000  1.0000
  Ti  Ti7       1.0  0.75000  0.75000  0.25000  1.0000
  Ti  Ti8       1.0  0.75000  0.75000  0.50000  1.0000
  Mo  Mo40      1.0  0.75000  0.75000  0.75000  1.0000
