data_image0
_chemical_formula_structural       TiMoTi12MoTi3MoTi6MoTi8MoTi17MoTi3Mo2Ti6
_chemical_formula_sum              "Ti56 Mo8"
_cell_length_a       10.9466
_cell_length_b       10.9466
_cell_length_c       10.9466
_cell_angle_alpha    109.471
_cell_angle_beta     109.471
_cell_angle_gamma    109.471

_space_group_name_H-M_alt    "P 1"
_space_group_IT_number       1

loop_
  _space_group_symop_operation_xyz
  'x, y, z'

loop_
  _atom_site_type_symbol
  _atom_site_label
  _atom_site_symmetry_multiplicity
  _atom_site_fract_x
  _atom_site_fract_y
  _atom_site_fract_z
  _atom_site_occupancy
  Ti  Ti1       1.0  0.00000  0.00000  0.00000  1.0000
  Mo  Mo1       1.0  0.00000  0.00000  0.25000  1.0000
  Ti  Ti2       1.0  1.00000  0.00000  0.50000  1.0000
  Ti  Ti3       1.0  0.00000  0.00000  0.75000  1.0000
  Ti  Ti4       1.0  0.00000  0.25000  0.00000  1.0000
  Ti  Ti5       1.0  1.00000  0.25000  0.25000  1.0000
  Ti  Ti6       1.0  1.00000  0.25000  0.50000  1.0000
  Ti  Ti7       1.0  0.00000  0.25000  0.75000  1.0000
  Ti  Ti8       1.0  1.00000  0.50000  0.00000  1.0000
  Ti  Ti9       1.0  1.00000  0.50000  0.25000  1.0000
  Ti  Ti10      1.0  1.00000  0.50000  0.50000  1.0000
  Ti  Ti11      1.0  1.00000  0.50000  0.75000  1.0000
  Ti  Ti12      1.0  0.00000  0.75000  0.00000  1.0000
  Ti  Ti13      1.0  0.00000  0.75000  0.25000  1.0000
  Mo  Mo2       1.0  0.00000  0.75000  0.50000  1.0000
  Ti  Ti14      1.0  1.00000  0.75000  0.75000  1.0000
  Ti  Ti15      1.0  0.25000  0.00000  0.00000  1.0000
  Ti  Ti16      1.0  0.25000  0.00000  0.25000  1.0000
  Mo  Mo3       1.0  0.25000  0.00000  0.50000  1.0000
  Ti  Ti17      1.0  0.25000  0.00000  0.75000  1.0000
  Ti  Ti18      1.0  0.25000  0.25000  0.00000  1.0000
  Ti  Ti19      1.0  0.25000  0.25000  0.25000  1.0000
  Ti  Ti20      1.0  0.25000  0.25000  0.50000  1.0000
  Ti  Ti21      1.0  0.25000  0.25000  0.75000  1.0000
  Ti  Ti22      1.0  0.25000  0.50000  0.00000  1.0000
  Mo  Mo4       1.0  0.25000  0.50000  0.25000  1.0000
  Ti  Ti23      1.0  0.25000  0.50000  0.50000  1.0000
  Ti  Ti24      1.0  0.25000  0.50000  0.75000  1.0000
  Ti  Ti25      1.0  0.25000  0.75000  0.00000  1.0000
  Ti  Ti26      1.0  0.25000  0.75000  0.25000  1.0000
  Ti  Ti27      1.0  0.25000  0.75000  0.50000  1.0000
  Ti  Ti28      1.0  0.25000  0.75000  0.75000  1.0000
  Ti  Ti29      1.0  0.50000  0.00000  0.00000  1.0000
  Ti  Ti30      1.0  0.50000  0.00000  0.25000  1.0000
  Mo  Mo5       1.0  0.50000  0.00000  0.50000  1.0000
  Ti  Ti31      1.0  0.50000  0.00000  0.75000  1.0000
  Ti  Ti32      1.0  0.50000  0.25000  0.00000  1.0000
  Ti  Ti33      1.0  0.50000  0.25000  0.25000  1.0000
  Ti  Ti34      1.0  0.50000  0.25000  0.50000  1.0000
  Ti  Ti35      1.0  0.50000  0.25000  0.75000  1.0000
  Ti  Ti36      1.0  0.50000  0.50000  0.00000  1.0000
  Ti  Ti37      1.0  0.50000  0.50000  0.25000  1.0000
  Ti  Ti38      1.0  0.50000  0.50000  0.50000  1.0000
  Ti  Ti39      1.0  0.50000  0.50000  0.75000  1.0000
  Ti  Ti40      1.0  0.50000  0.75000  0.00000  1.0000
  Ti  Ti41      1.0  0.50000  0.75000  0.25000  1.0000
  Ti  Ti42      1.0  0.50000  0.75000  0.50000  1.0000
  Ti  Ti43      1.0  0.50000  0.75000  0.75000  1.0000
  Ti  Ti44      1.0  0.75000  0.00000  0.00000  1.0000
  Ti  Ti45      1.0  0.75000  0.00000  0.25000  1.0000
  Ti  Ti46      1.0  0.75000  0.00000  0.50000  1.0000
  Ti  Ti47      1.0  0.75000  0.00000  0.75000  1.0000
  Mo  Mo6       1.0  0.75000  0.25000  0.00000  1.0000
  Ti  Ti48      1.0  0.75000  0.25000  0.25000  1.0000
  Ti  Ti49      1.0  0.75000  0.25000  0.50000  1.0000
  Ti  Ti50      1.0  0.75000  0.25000  0.75000  1.0000
  Mo  Mo7       1.0  0.75000  0.50000  0.00000  1.0000
  Mo  Mo8       1.0  0.75000  0.50000  0.25000  1.0000
  Ti  Ti51      1.0  0.75000  0.50000  0.50000  1.0000
  Ti  Ti52      1.0  0.75000  0.50000  0.75000  1.0000
  Ti  Ti53      1.0  0.75000  0.75000  0.00000  1.0000
  Ti  Ti54      1.0  0.75000  0.75000  0.25000  1.0000
  Ti  Ti55      1.0  0.75000  0.75000  0.50000  1.0000
  Ti  Ti56      1.0  0.75000  0.75000  0.75000  1.0000
