data_image0
_chemical_formula_structural       TaTiTa2Ti3TaTiTaTi19TaTi2TaTi5TaTi
_chemical_formula_sum              "Ta8 Ti32"
_cell_length_a       15.8
_cell_length_b       6.32
_cell_length_c       6.32
_cell_angle_alpha    90
_cell_angle_beta     90
_cell_angle_gamma    90

_space_group_name_H-M_alt    "P 1"
_space_group_IT_number       1

loop_
  _space_group_symop_operation_xyz
  'x, y, z'

loop_
  _atom_site_type_symbol
  _atom_site_label
  _atom_site_symmetry_multiplicity
  _atom_site_fract_x
  _atom_site_fract_y
  _atom_site_fract_z
  _atom_site_occupancy
  Ta  Ta1       1.0  0.00000  0.00000  0.00000  1.0000
  Ti  Ti1       1.0  0.10000  0.25000  0.25000  1.0000
  Ta  Ta2       1.0  0.00000  0.00000  0.50000  1.0000
  Ta  Ta3       1.0  0.10000  0.25000  0.75000  1.0000
  Ti  Ti2       1.0  0.00000  0.50000  0.00000  1.0000
  Ti  Ti3       1.0  0.10000  0.75000  0.25000  1.0000
  Ti  Ti4       1.0  0.00000  0.50000  0.50000  1.0000
  Ta  Ta4       1.0  0.10000  0.75000  0.75000  1.0000
  Ti  Ti5       1.0  0.20000  0.00000  0.00000  1.0000
  Ta  Ta5       1.0  0.30000  0.25000  0.25000  1.0000
  Ti  Ti6       1.0  0.20000  0.00000  0.50000  1.0000
  Ti  Ti7       1.0  0.30000  0.25000  0.75000  1.0000
  Ti  Ti8       1.0  0.20000  0.50000  0.00000  1.0000
  Ti  Ti9       1.0  0.30000  0.75000  0.25000  1.0000
  Ti  Ti10      1.0  0.20000  0.50000  0.50000  1.0000
  Ti  Ti11      1.0  0.30000  0.75000  0.75000  1.0000
  Ti  Ti12      1.0  0.40000  0.00000  0.00000  1.0000
  Ti  Ti13      1.0  0.50000  0.25000  0.25000  1.0000
  Ti  Ti14      1.0  0.40000  0.00000  0.50000  1.0000
  Ti  Ti15      1.0  0.50000  0.25000  0.75000  1.0000
  Ti  Ti16      1.0  0.40000  0.50000  0.00000  1.0000
  Ti  Ti17      1.0  0.50000  0.75000  0.25000  1.0000
  Ti  Ti18      1.0  0.40000  0.50000  0.50000  1.0000
  Ti  Ti19      1.0  0.50000  0.75000  0.75000  1.0000
  Ti  Ti20      1.0  0.60000  0.00000  0.00000  1.0000
  Ti  Ti21      1.0  0.70000  0.25000  0.25000  1.0000
  Ti  Ti22      1.0  0.60000  0.00000  0.50000  1.0000
  Ti  Ti23      1.0  0.70000  0.25000  0.75000  1.0000
  Ti  Ti24      1.0  0.60000  0.50000  0.00000  1.0000
  Ta  Ta6       1.0  0.70000  0.75000  0.25000  1.0000
  Ti  Ti25      1.0  0.60000  0.50000  0.50000  1.0000
  Ti  Ti26      1.0  0.70000  0.75000  0.75000  1.0000
  Ta  Ta7       1.0  0.80000  0.00000  0.00000  1.0000
  Ti  Ti27      1.0  0.90000  0.25000  0.25000  1.0000
  Ti  Ti28      1.0  0.80000  0.00000  0.50000  1.0000
  Ti  Ti29      1.0  0.90000  0.25000  0.75000  1.0000
  Ti  Ti30      1.0  0.80000  0.50000  0.00000  1.0000
  Ti  Ti31      1.0  0.90000  0.75000  0.25000  1.0000
  Ta  Ta8       1.0  0.80000  0.50000  0.50000  1.0000
  Ti  Ti32      1.0  0.90000  0.75000  0.75000  1.0000
