data_image0
_chemical_formula_structural       Ta108
_chemical_formula_sum              "Ta108"
_cell_length_a       12
_cell_length_b       12
_cell_length_c       12
_cell_angle_alpha    90
_cell_angle_beta     90
_cell_angle_gamma    90

_space_group_name_H-M_alt    "P 1"
_space_group_IT_number       1

loop_
  _space_group_symop_operation_xyz
  'x, y, z'

loop_
  _atom_site_type_symbol
  _atom_site_label
  _atom_site_symmetry_multiplicity
  _atom_site_fract_x
  _atom_site_fract_y
  _atom_site_fract_z
  _atom_site_occupancy
  Ta  Ta1       1.0  0.99958  0.00010  0.00042  1.0000
  Ta  Ta2       1.0  0.16692  0.16708  0.99958  1.0000
  Ta  Ta3       1.0  0.16625  0.00042  0.16684  1.0000
  Ta  Ta4       1.0  0.00042  0.16707  0.16625  1.0000
  Ta  Ta5       1.0  0.99958  0.00024  0.33375  1.0000
  Ta  Ta6       1.0  0.16689  0.16708  0.33292  1.0000
  Ta  Ta7       1.0  0.16625  0.00037  0.50042  1.0000
  Ta  Ta8       1.0  0.99999  0.16625  0.50042  1.0000
  Ta  Ta9       1.0  0.99969  0.99958  0.66708  1.0000
  Ta  Ta10      1.0  0.16625  0.16708  0.66632  1.0000
  Ta  Ta11      1.0  0.16708  0.00023  0.83292  1.0000
  Ta  Ta12      1.0  0.99958  0.16703  0.83375  1.0000
  Ta  Ta13      1.0  0.00019  0.33292  0.00042  1.0000
  Ta  Ta14      1.0  0.16680  0.49958  0.00042  1.0000
  Ta  Ta15      1.0  0.16708  0.33325  0.16625  1.0000
  Ta  Ta16      1.0  0.99958  0.50011  0.16708  1.0000
  Ta  Ta17      1.0  0.99958  0.33362  0.33375  1.0000
  Ta  Ta18      1.0  0.16708  0.50021  0.33292  1.0000
  Ta  Ta19      1.0  0.16708  0.33292  0.49991  1.0000
  Ta  Ta20      1.0  0.00042  0.49958  0.49968  1.0000
  Ta  Ta21      1.0  0.99958  0.33356  0.66708  1.0000
  Ta  Ta22      1.0  0.16625  0.50026  0.66708  1.0000
  Ta  Ta23      1.0  0.16708  0.33343  0.83292  1.0000
  Ta  Ta24      1.0  0.00042  0.50040  0.83292  1.0000
  Ta  Ta25      1.0  0.00008  0.66708  0.99958  1.0000
  Ta  Ta26      1.0  0.16708  0.83311  0.99958  1.0000
  Ta  Ta27      1.0  0.16680  0.66708  0.16625  1.0000
  Ta  Ta28      1.0  0.99973  0.83292  0.16708  1.0000
  Ta  Ta29      1.0  0.99958  0.66701  0.33375  1.0000
  Ta  Ta30      1.0  0.16657  0.83375  0.33292  1.0000
  Ta  Ta31      1.0  0.16631  0.66708  0.49958  1.0000
  Ta  Ta32      1.0  0.00001  0.83292  0.50042  1.0000
  Ta  Ta33      1.0  0.00025  0.66708  0.66625  1.0000
  Ta  Ta34      1.0  0.16625  0.83375  0.66656  1.0000
  Ta  Ta35      1.0  0.16643  0.66625  0.83375  1.0000
  Ta  Ta36      1.0  0.00039  0.83292  0.83375  1.0000
  Ta  Ta37      1.0  0.33292  0.99990  0.00042  1.0000
  Ta  Ta38      1.0  0.50042  0.16625  0.99958  1.0000
  Ta  Ta39      1.0  0.50042  0.99958  0.16698  1.0000
  Ta  Ta40      1.0  0.33375  0.16674  0.16625  1.0000
  Ta  Ta41      1.0  0.33350  0.99958  0.33375  1.0000
  Ta  Ta42      1.0  0.49958  0.16700  0.33375  1.0000
  Ta  Ta43      1.0  0.50014  0.99958  0.50042  1.0000
  Ta  Ta44      1.0  0.33330  0.16625  0.50042  1.0000
  Ta  Ta45      1.0  0.33292  0.00042  0.66631  1.0000
  Ta  Ta46      1.0  0.50042  0.16638  0.66625  1.0000
  Ta  Ta47      1.0  0.49958  0.00042  0.83303  1.0000
  Ta  Ta48      1.0  0.33292  0.16634  0.83375  1.0000
  Ta  Ta49      1.0  0.33375  0.33331  0.99958  1.0000
  Ta  Ta50      1.0  0.50031  0.49958  0.00042  1.0000
  Ta  Ta51      1.0  0.49958  0.33375  0.16663  1.0000
  Ta  Ta52      1.0  0.33375  0.49958  0.16682  1.0000
  Ta  Ta53      1.0  0.33346  0.33292  0.33375  1.0000
  Ta  Ta54      1.0  0.49958  0.50038  0.33375  1.0000
  Ta  Ta55      1.0  0.50042  0.33327  0.49958  1.0000
  Ta  Ta56      1.0  0.33292  0.50037  0.50042  1.0000
  Ta  Ta57      1.0  0.33292  0.33375  0.66686  1.0000
  Ta  Ta58      1.0  0.49958  0.50037  0.66708  1.0000
  Ta  Ta59      1.0  0.50042  0.33295  0.83292  1.0000
  Ta  Ta60      1.0  0.33303  0.50042  0.83292  1.0000
  Ta  Ta61      1.0  0.33321  0.66708  0.99958  1.0000
  Ta  Ta62      1.0  0.49960  0.83292  0.00042  1.0000
  Ta  Ta63      1.0  0.49958  0.66708  0.16666  1.0000
  Ta  Ta64      1.0  0.33294  0.83292  0.16708  1.0000
  Ta  Ta65      1.0  0.33292  0.66700  0.33375  1.0000
  Ta  Ta66      1.0  0.49994  0.83375  0.33292  1.0000
  Ta  Ta67      1.0  0.50042  0.66625  0.50002  1.0000
  Ta  Ta68      1.0  0.33324  0.83292  0.50042  1.0000
  Ta  Ta69      1.0  0.33351  0.66708  0.66625  1.0000
  Ta  Ta70      1.0  0.50042  0.83292  0.66703  1.0000
  Ta  Ta71      1.0  0.50042  0.66625  0.83373  1.0000
  Ta  Ta72      1.0  0.33329  0.83292  0.83375  1.0000
  Ta  Ta73      1.0  0.66660  0.00042  0.99958  1.0000
  Ta  Ta74      1.0  0.83292  0.16708  0.00042  1.0000
  Ta  Ta75      1.0  0.83292  0.00018  0.16708  1.0000
  Ta  Ta76      1.0  0.66708  0.16625  0.16702  1.0000
  Ta  Ta77      1.0  0.66625  0.99982  0.33375  1.0000
  Ta  Ta78      1.0  0.83341  0.16708  0.33292  1.0000
  Ta  Ta79      1.0  0.83375  0.99958  0.50031  1.0000
  Ta  Ta80      1.0  0.66689  0.16625  0.50042  1.0000
  Ta  Ta81      1.0  0.66639  0.00042  0.66625  1.0000
  Ta  Ta82      1.0  0.83361  0.16708  0.66625  1.0000
  Ta  Ta83      1.0  0.83326  0.00042  0.83292  1.0000
  Ta  Ta84      1.0  0.66625  0.16667  0.83375  1.0000
  Ta  Ta85      1.0  0.66706  0.33292  0.00042  1.0000
  Ta  Ta86      1.0  0.83375  0.49974  0.99958  1.0000
  Ta  Ta87      1.0  0.83292  0.33312  0.16708  1.0000
  Ta  Ta88      1.0  0.66625  0.50042  0.16682  1.0000
  Ta  Ta89      1.0  0.66625  0.33294  0.33375  1.0000
  Ta  Ta90      1.0  0.83292  0.50028  0.33375  1.0000
  Ta  Ta91      1.0  0.83375  0.33345  0.49958  1.0000
  Ta  Ta92      1.0  0.66625  0.50042  0.50015  1.0000
  Ta  Ta93      1.0  0.66647  0.33292  0.66708  1.0000
  Ta  Ta94      1.0  0.83375  0.50027  0.66625  1.0000
  Ta  Ta95      1.0  0.83292  0.33375  0.83305  1.0000
  Ta  Ta96      1.0  0.66708  0.49958  0.83308  1.0000
  Ta  Ta97      1.0  0.66627  0.66625  0.00042  1.0000
  Ta  Ta98      1.0  0.83305  0.83292  0.00042  1.0000
  Ta  Ta99      1.0  0.83375  0.66625  0.16691  1.0000
  Ta  Ta100     1.0  0.66625  0.83356  0.16708  1.0000
  Ta  Ta101     1.0  0.66625  0.66632  0.33375  1.0000
  Ta  Ta102     1.0  0.83375  0.83292  0.33359  1.0000
  Ta  Ta103     1.0  0.83375  0.66683  0.49958  1.0000
  Ta  Ta104     1.0  0.66691  0.83375  0.49958  1.0000
  Ta  Ta105     1.0  0.66634  0.66625  0.66708  1.0000
  Ta  Ta106     1.0  0.83375  0.83292  0.66651  1.0000
  Ta  Ta107     1.0  0.83358  0.66708  0.83292  1.0000
  Ta  Ta108     1.0  0.66625  0.83375  0.83337  1.0000
