data_image0
_chemical_formula_structural       Cr18
_chemical_formula_sum              "Cr18"
_cell_length_a       8.53163
_cell_length_b       7.41173
_cell_length_c       6.41307
_cell_angle_alpha    90
_cell_angle_beta     90
_cell_angle_gamma    90

_space_group_name_H-M_alt    "P 1"
_space_group_IT_number       1

loop_
  _space_group_symop_operation_xyz
  'x, y, z'

loop_
  _atom_site_type_symbol
  _atom_site_label
  _atom_site_symmetry_multiplicity
  _atom_site_fract_x
  _atom_site_fract_y
  _atom_site_fract_z
  _atom_site_occupancy
  Cr  Cr1       1.0  0.56619  0.17049  0.13157  1.0000
  Cr  Cr2       1.0  0.53423  0.24035  0.81391  1.0000
  Cr  Cr3       1.0  0.44804  0.62525  0.49381  1.0000
  Cr  Cr4       1.0  0.06448  0.88001  0.05536  1.0000
  Cr  Cr5       1.0  0.62711  0.89977  0.59531  1.0000
  Cr  Cr6       1.0  0.85133  0.94310  0.80863  1.0000
  Cr  Cr7       1.0  0.73532  0.52878  0.54115  1.0000
  Cr  Cr8       1.0  0.10956  0.63364  0.56083  1.0000
  Cr  Cr9       1.0  0.57291  0.31314  0.49665  1.0000
  Cr  Cr10      1.0  0.27390  0.09245  0.27639  1.0000
  Cr  Cr11      1.0  0.07515  0.47917  0.89846  1.0000
  Cr  Cr12      1.0  0.73084  0.88186  0.17181  1.0000
  Cr  Cr13      1.0  0.09698  0.92093  0.51792  1.0000
  Cr  Cr14      1.0  0.48776  0.02224  0.36385  1.0000
  Cr  Cr15      1.0  0.19690  0.38013  0.44240  1.0000
  Cr  Cr16      1.0  0.34646  0.54489  0.85197  1.0000
  Cr  Cr17      1.0  0.57857  0.68860  0.99098  1.0000
  Cr  Cr18      1.0  0.46461  0.96875  0.95564  1.0000
