data_image0
_chemical_formula_structural       Cr40
_chemical_formula_sum              "Cr40"
_cell_length_a       10.8886
_cell_length_b       13.4878
_cell_length_c       9.32381
_cell_angle_alpha    90
_cell_angle_beta     90
_cell_angle_gamma    90

_space_group_name_H-M_alt    "P 1"
_space_group_IT_number       1

loop_
  _space_group_symop_operation_xyz
  'x, y, z'

loop_
  _atom_site_type_symbol
  _atom_site_label
  _atom_site_symmetry_multiplicity
  _atom_site_fract_x
  _atom_site_fract_y
  _atom_site_fract_z
  _atom_site_occupancy
  Cr  Cr1       1.0  0.56086  0.47072  0.33434  1.0000
  Cr  Cr2       1.0  0.32670  0.37538  0.56558  1.0000
  Cr  Cr3       1.0  0.76321  0.42232  0.96526  1.0000
  Cr  Cr4       1.0  0.88622  0.37178  0.44528  1.0000
  Cr  Cr5       1.0  0.73891  0.99567  0.37188  1.0000
  Cr  Cr6       1.0  0.69104  0.39178  0.68677  1.0000
  Cr  Cr7       1.0  0.54559  0.29388  0.05210  1.0000
  Cr  Cr8       1.0  0.04229  0.09360  0.71693  1.0000
  Cr  Cr9       1.0  0.42123  0.44273  0.00887  1.0000
  Cr  Cr10      1.0  0.23165  0.17764  0.01859  1.0000
  Cr  Cr11      1.0  0.92271  0.14576  0.21351  1.0000
  Cr  Cr12      1.0  0.46599  0.09043  0.13768  1.0000
  Cr  Cr13      1.0  0.31148  0.32481  0.83403  1.0000
  Cr  Cr14      1.0  0.12668  0.46652  0.05558  1.0000
  Cr  Cr15      1.0  0.70989  0.17508  0.66387  1.0000
  Cr  Cr16      1.0  0.96339  0.30782  0.99120  1.0000
  Cr  Cr17      1.0  0.94674  0.15963  0.99529  1.0000
  Cr  Cr18      1.0  0.25984  0.37619  0.24718  1.0000
  Cr  Cr19      1.0  0.70594  0.28744  0.31054  1.0000
  Cr  Cr20      1.0  0.42898  0.61922  0.84527  1.0000
  Cr  Cr21      1.0  0.78868  0.48406  0.20385  1.0000
  Cr  Cr22      1.0  0.03328  0.79676  0.71611  1.0000
  Cr  Cr23      1.0  0.74985  0.61340  0.79905  1.0000
  Cr  Cr24      1.0  0.87845  0.70159  0.13127  1.0000
  Cr  Cr25      1.0  0.99571  0.60378  0.32165  1.0000
  Cr  Cr26      1.0  0.63948  0.92487  0.02610  1.0000
  Cr  Cr27      1.0  0.56702  0.59269  0.04730  1.0000
  Cr  Cr28      1.0  0.38955  0.83046  0.75167  1.0000
  Cr  Cr29      1.0  0.70455  0.77098  0.25468  1.0000
  Cr  Cr30      1.0  0.37267  0.61489  0.14846  1.0000
  Cr  Cr31      1.0  0.51777  0.61208  0.44618  1.0000
  Cr  Cr32      1.0  0.16739  0.71135  0.37072  1.0000
  Cr  Cr33      1.0  0.85084  0.76867  0.48364  1.0000
  Cr  Cr34      1.0  0.34426  0.59691  0.60064  1.0000
  Cr  Cr35      1.0  0.61922  0.93461  0.68010  1.0000
  Cr  Cr36      1.0  0.52668  0.86964  0.43975  1.0000
  Cr  Cr37      1.0  0.72594  0.59806  0.54701  1.0000
  Cr  Cr38      1.0  0.85195  0.89475  0.83075  1.0000
  Cr  Cr39      1.0  0.16164  0.62038  0.86506  1.0000
  Cr  Cr40      1.0  0.10595  0.50523  0.50676  1.0000
