data_image0
_chemical_formula_structural       VCr6Fe4CrFe2SiCr4Fe5
_chemical_formula_sum              "V1 Cr11 Fe11 Si1"
_cell_length_a       2.28586
_cell_length_b       15.334
_cell_length_c       10.4751
_cell_angle_alpha    67.0231
_cell_angle_beta     64.1233
_cell_angle_gamma    63.4349

_space_group_name_H-M_alt    "P 1"
_space_group_IT_number       1

loop_
  _space_group_symop_operation_xyz
  'x, y, z'

loop_
  _atom_site_type_symbol
  _atom_site_label
  _atom_site_symmetry_multiplicity
  _atom_site_fract_x
  _atom_site_fract_y
  _atom_site_fract_z
  _atom_site_occupancy
  V   V1        1.0  0.70707  0.08447  0.21659  1.0000
  Cr  Cr1       1.0  0.50964  0.13899  0.98004  1.0000
  Cr  Cr2       1.0  0.11782  0.41781  0.27853  1.0000
  Cr  Cr3       1.0  0.05280  0.44837  0.03681  1.0000
  Cr  Cr4       1.0  0.20365  0.09295  0.58852  1.0000
  Cr  Cr5       1.0  0.55020  0.30431  0.48283  1.0000
  Cr  Cr6       1.0  0.97778  0.28314  0.08775  1.0000
  Fe  Fe1       1.0  0.53117  0.45231  0.53133  1.0000
  Fe  Fe2       1.0  0.63458  0.19693  0.34713  1.0000
  Fe  Fe3       1.0  0.11255  0.20026  0.72303  1.0000
  Fe  Fe4       1.0  0.02846  0.32081  0.83432  1.0000
  Cr  Cr7       1.0  0.24559  0.74825  0.23690  1.0000
  Fe  Fe5       1.0  0.09864  0.56605  0.32721  1.0000
  Fe  Fe6       1.0  0.33221  0.66307  0.07136  1.0000
  Si  Si1       1.0  0.21085  0.78686  0.44618  1.0000
  Cr  Cr8       1.0  0.61239  0.92230  0.25700  1.0000
  Cr  Cr9       1.0  0.45862  0.82931  0.97248  1.0000
  Cr  Cr10      1.0  0.57888  0.96089  0.46633  1.0000
  Cr  Cr11      1.0  0.98323  0.62756  0.54868  1.0000
  Fe  Fe7       1.0  0.42105  0.97627  0.02130  1.0000
  Fe  Fe8       1.0  0.87729  0.89062  0.70672  1.0000
  Fe  Fe9       1.0  0.49314  0.49965  0.73547  1.0000
  Fe  Fe10      1.0  0.84163  0.73191  0.71314  1.0000
  Fe  Fe11      1.0  0.40431  0.59579  0.88626  1.0000
