data_image0
_chemical_formula_structural       SiFe3Cr3SiFe2Cr2SiFe3Cr2FeCr2SiFe2CrSiFe3CrSiFeCr2SiCr2SiFeCrSi2Cr4
_chemical_formula_sum              "Si10 Fe16 Cr20"
_cell_length_a       2.28586
_cell_length_b       2.28586
_cell_length_c       81.9728
_cell_angle_alpha    68.7454
_cell_angle_beta     54.1548
_cell_angle_gamma    90

_space_group_name_H-M_alt    "P 1"
_space_group_IT_number       1

loop_
  _space_group_symop_operation_xyz
  'x, y, z'

loop_
  _atom_site_type_symbol
  _atom_site_label
  _atom_site_symmetry_multiplicity
  _atom_site_fract_x
  _atom_site_fract_y
  _atom_site_fract_z
  _atom_site_occupancy
  Si  Si1       1.0  0.11641  0.62520  0.00985  1.0000
  Fe  Fe1       1.0  0.09866  0.01653  0.05854  1.0000
  Fe  Fe2       1.0  0.06955  0.36055  0.10754  1.0000
  Fe  Fe3       1.0  0.02985  0.16010  0.08560  1.0000
  Cr  Cr1       1.0  0.11585  0.02415  0.05762  1.0000
  Cr  Cr2       1.0  0.17970  0.87486  0.03079  1.0000
  Cr  Cr3       1.0  0.13915  0.57268  0.12805  1.0000
  Si  Si2       1.0  0.24230  0.96669  0.17128  1.0000
  Fe  Fe4       1.0  0.20021  0.78141  0.14915  1.0000
  Fe  Fe5       1.0  0.15744  0.08471  0.19930  1.0000
  Cr  Cr4       1.0  0.09678  0.22218  0.22648  1.0000
  Cr  Cr5       1.0  0.17455  0.09944  0.19859  1.0000
  Si  Si3       1.0  0.24357  0.59414  0.27016  1.0000
  Fe  Fe6       1.0  0.31040  0.77422  0.29267  1.0000
  Fe  Fe7       1.0  0.17146  0.41181  0.24813  1.0000
  Fe  Fe8       1.0  0.43697  0.12573  0.33876  1.0000
  Cr  Cr6       1.0  0.36870  0.94521  0.31583  1.0000
  Cr  Cr7       1.0  0.52139  0.31240  0.36126  1.0000
  Fe  Fe9       1.0  0.60097  0.50036  0.38414  1.0000
  Cr  Cr8       1.0  0.67843  0.68042  0.40713  1.0000
  Cr  Cr9       1.0  0.74570  0.85827  0.43069  1.0000
  Si  Si4       1.0  0.90549  0.22461  0.47660  1.0000
  Fe  Fe10      1.0  0.82778  0.04525  0.45348  1.0000
  Fe  Fe11      1.0  0.01988  0.57829  0.52399  1.0000
  Cr  Cr10      1.0  0.96832  0.40445  0.50010  1.0000
  Si  Si5       1.0  0.07885  0.76425  0.54723  1.0000
  Fe  Fe12      1.0  0.13316  0.94620  0.57063  1.0000
  Fe  Fe13      1.0  0.22126  0.30342  0.61749  1.0000
  Fe  Fe14      1.0  0.25254  0.48513  0.64098  1.0000
  Cr  Cr11      1.0  0.18388  0.12537  0.59398  1.0000
  Si  Si6       1.0  0.33579  0.88623  0.68630  1.0000
  Fe  Fe15      1.0  0.29797  0.68587  0.66353  1.0000
  Cr  Cr12      1.0  0.36211  0.08953  0.70928  1.0000
  Cr  Cr13      1.0  0.37856  0.28801  0.73252  1.0000
  Si  Si7       1.0  0.41611  0.50750  0.75482  1.0000
  Cr  Cr14      1.0  0.51797  0.99051  0.79782  1.0000
  Cr  Cr15      1.0  0.46986  0.74465  0.77633  1.0000
  Si  Si8       1.0  0.59616  0.47329  0.84188  1.0000
  Fe  Fe16      1.0  0.56194  0.23101  0.81958  1.0000
  Cr  Cr16      1.0  0.64710  0.73213  0.86343  1.0000
  Si  Si9       1.0  0.72332  0.01476  0.88386  1.0000
  Si  Si10      1.0  0.02881  0.35512  0.98992  1.0000
  Cr  Cr17      1.0  0.96011  0.08832  0.96910  1.0000
  Cr  Cr18      1.0  0.91263  0.83385  0.94723  1.0000
  Cr  Cr19      1.0  0.80051  0.29919  0.90432  1.0000
  Cr  Cr20      1.0  0.86521  0.57894  0.92538  1.0000
