data_image0
_chemical_formula_structural       Si3Fe6Cr25
_chemical_formula_sum              "Si3 Fe6 Cr25"
_cell_length_a       6.85757
_cell_length_b       7.22852
_cell_length_c       7.22852
_cell_angle_alpha    107.458
_cell_angle_beta     90
_cell_angle_gamma    71.5651

_space_group_name_H-M_alt    "P 1"
_space_group_IT_number       1

loop_
  _space_group_symop_operation_xyz
  'x, y, z'

loop_
  _atom_site_type_symbol
  _atom_site_label
  _atom_site_symmetry_multiplicity
  _atom_site_fract_x
  _atom_site_fract_y
  _atom_site_fract_z
  _atom_site_occupancy
  Si  Si1       1.0  0.31708  0.96728  0.70952  1.0000
  Si  Si2       1.0  0.85509  0.52027  0.59660  1.0000
  Si  Si3       1.0  0.80176  0.01116  0.41731  1.0000
  Fe  Fe1       1.0  0.05271  0.51315  0.96856  1.0000
  Fe  Fe2       1.0  0.60452  0.33802  0.61174  1.0000
  Fe  Fe3       1.0  0.11578  0.96391  0.93282  1.0000
  Fe  Fe4       1.0  0.88136  0.78474  0.84945  1.0000
  Fe  Fe5       1.0  0.48886  0.24017  0.28952  1.0000
  Fe  Fe6       1.0  0.22891  0.60755  0.76685  1.0000
  Cr  Cr1       1.0  0.70857  0.79852  0.10999  1.0000
  Cr  Cr2       1.0  0.24038  0.24509  0.07510  1.0000
  Cr  Cr3       1.0  0.36533  0.28860  0.80171  1.0000
  Cr  Cr4       1.0  0.79716  0.07871  0.11568  1.0000
  Cr  Cr5       1.0  0.70886  0.41372  0.34027  1.0000
  Cr  Cr6       1.0  0.75055  0.47125  0.88223  1.0000
  Cr  Cr7       1.0  0.67482  0.84974  0.59582  1.0000
  Cr  Cr8       1.0  0.90558  0.61449  0.29979  1.0000
  Cr  Cr9       1.0  0.04849  0.81925  0.15247  1.0000
  Cr  Cr10      1.0  0.05494  0.23937  0.67272  1.0000
  Cr  Cr11      1.0  0.53889  0.70610  0.79030  1.0000
  Cr  Cr12      1.0  0.43357  0.08822  0.48534  1.0000
  Cr  Cr13      1.0  0.55069  0.02408  0.92913  1.0000
  Cr  Cr14      1.0  0.39390  0.64386  0.02094  1.0000
  Cr  Cr15      1.0  0.53850  0.72510  0.30989  1.0000
  Cr  Cr16      1.0  0.35357  0.97055  0.16635  1.0000
  Cr  Cr17      1.0  0.56714  0.34890  0.04641  1.0000
  Cr  Cr18      1.0  0.02377  0.17576  0.32639  1.0000
  Cr  Cr19      1.0  0.92068  0.30346  0.06332  1.0000
  Cr  Cr20      1.0  0.18359  0.40402  0.47055  1.0000
  Cr  Cr21      1.0  0.39807  0.61524  0.51462  1.0000
  Cr  Cr22      1.0  0.03279  0.77344  0.56719  1.0000
  Cr  Cr23      1.0  0.81438  0.10382  0.77931  1.0000
  Cr  Cr24      1.0  0.19720  0.90941  0.42088  1.0000
  Cr  Cr25      1.0  0.25626  0.55261  0.24381  1.0000
