data_image0
_chemical_formula_structural       Fe2Cr2FeCr4FeSiFe3CrSiCr5SiFe2Cr3Si2Cr4
_chemical_formula_sum              "Fe9 Cr19 Si5"
_cell_length_a       2.28586
_cell_length_b       2.28586
_cell_length_c       71.0089
_cell_angle_alpha    78.8635
_cell_angle_beta     49.9225
_cell_angle_gamma    90

_space_group_name_H-M_alt    "P 1"
_space_group_IT_number       1

loop_
  _space_group_symop_operation_xyz
  'x, y, z'

loop_
  _atom_site_type_symbol
  _atom_site_label
  _atom_site_symmetry_multiplicity
  _atom_site_fract_x
  _atom_site_fract_y
  _atom_site_fract_z
  _atom_site_occupancy
  Fe  Fe1       1.0  0.77700  0.98702  0.08386  1.0000
  Fe  Fe2       1.0  0.67686  0.29976  0.11325  1.0000
  Cr  Cr1       1.0  0.89508  0.67673  0.05304  1.0000
  Cr  Cr2       1.0  0.71098  0.39916  0.01589  1.0000
  Fe  Fe3       1.0  0.48789  0.29306  0.19278  1.0000
  Cr  Cr3       1.0  0.37228  0.05540  0.24260  1.0000
  Cr  Cr4       1.0  0.61342  0.61684  0.14038  1.0000
  Cr  Cr5       1.0  0.42510  0.65881  0.21828  1.0000
  Cr  Cr6       1.0  0.55202  0.95082  0.16666  1.0000
  Fe  Fe4       1.0  0.34910  0.48349  0.26461  1.0000
  Si  Si1       1.0  0.17045  0.56268  0.33679  1.0000
  Fe  Fe5       1.0  0.30791  0.89245  0.28787  1.0000
  Fe  Fe6       1.0  0.09725  0.84486  0.36212  1.0000
  Fe  Fe7       1.0  0.05867  0.15272  0.38709  1.0000
  Cr  Cr7       1.0  0.24919  0.25969  0.31173  1.0000
  Si  Si2       1.0  0.03330  0.50489  0.41320  1.0000
  Cr  Cr8       1.0  0.95311  0.26341  0.46805  1.0000
  Cr  Cr9       1.0  0.83960  0.61192  0.49687  1.0000
  Cr  Cr10      1.0  0.00766  0.88352  0.44006  1.0000
  Cr  Cr11      1.0  0.51780  0.44272  0.52956  1.0000
  Cr  Cr12      1.0  0.36673  0.72654  0.55939  1.0000
  Si  Si3       1.0  0.10830  0.72072  0.59306  1.0000
  Fe  Fe8       1.0  0.95080  0.99210  0.62404  1.0000
  Fe  Fe9       1.0  0.61143  0.55305  0.68658  1.0000
  Cr  Cr13      1.0  0.78716  0.27312  0.65505  1.0000
  Cr  Cr14      1.0  0.22617  0.12285  0.75056  1.0000
  Cr  Cr15      1.0  0.41872  0.83446  0.71851  1.0000
  Si  Si4       1.0  0.33329  0.05711  0.86047  1.0000
  Si  Si5       1.0  0.87798  0.93545  0.78827  1.0000
  Cr  Cr16      1.0  0.52965  0.77399  0.82681  1.0000
  Cr  Cr17      1.0  0.14682  0.33865  0.89434  1.0000
  Cr  Cr18      1.0  0.14436  0.56308  0.93400  1.0000
  Cr  Cr19      1.0  0.88040  0.09727  0.98235  1.0000
