data_image0
_chemical_formula_structural       Si6Fe8Cr19Si5Fe17Cr12
_chemical_formula_sum              "Si11 Fe25 Cr31"
_cell_length_a       4.57172
_cell_length_b       18.8497
_cell_length_c       4.57172
_cell_angle_alpha    90
_cell_angle_beta     90
_cell_angle_gamma    75.9638

_space_group_name_H-M_alt    "P 1"
_space_group_IT_number       1

loop_
  _space_group_symop_operation_xyz
  'x, y, z'

loop_
  _atom_site_type_symbol
  _atom_site_label
  _atom_site_symmetry_multiplicity
  _atom_site_fract_x
  _atom_site_fract_y
  _atom_site_fract_z
  _atom_site_occupancy
  Si  Si1       1.0  0.77996  0.18717  0.14965  1.0000
  Si  Si2       1.0  0.82790  0.27333  0.93198  1.0000
  Si  Si3       1.0  0.11254  0.06657  0.12195  1.0000
  Si  Si4       1.0  0.13581  0.25939  0.56345  1.0000
  Si  Si5       1.0  0.73389  0.19732  0.64092  1.0000
  Si  Si6       1.0  0.55887  0.47405  0.87232  1.0000
  Fe  Fe1       1.0  0.57273  0.39136  0.51395  1.0000
  Fe  Fe2       1.0  0.12694  0.15903  0.35605  1.0000
  Fe  Fe3       1.0  0.62886  0.19535  0.65145  1.0000
  Fe  Fe4       1.0  0.85313  0.28548  0.44459  1.0000
  Fe  Fe5       1.0  0.97202  0.37236  0.78739  1.0000
  Fe  Fe6       1.0  0.22088  0.50590  0.55890  1.0000
  Fe  Fe7       1.0  0.97792  0.37248  0.78556  1.0000
  Fe  Fe8       1.0  0.51833  0.07811  0.59366  1.0000
  Cr  Cr1       1.0  0.09768  0.06800  0.61632  1.0000
  Cr  Cr2       1.0  0.21614  0.16126  0.84371  1.0000
  Cr  Cr3       1.0  0.09418  0.48426  0.14016  1.0000
  Cr  Cr4       1.0  0.35822  0.26737  0.97172  1.0000
  Cr  Cr5       1.0  0.43751  0.31530  0.66190  1.0000
  Cr  Cr6       1.0  0.07782  0.36882  0.28767  1.0000
  Cr  Cr7       1.0  0.78724  0.09303  0.43522  1.0000
  Cr  Cr8       1.0  0.38916  0.17457  0.29261  1.0000
  Cr  Cr9       1.0  0.74808  0.11672  0.94879  1.0000
  Cr  Cr10      1.0  0.97846  0.38373  0.27427  1.0000
  Cr  Cr11      1.0  0.19880  0.16150  0.85473  1.0000
  Cr  Cr12      1.0  0.56476  0.36984  0.08018  1.0000
  Cr  Cr13      1.0  0.47864  0.28266  0.29925  1.0000
  Cr  Cr14      1.0  0.58916  0.48351  0.23187  1.0000
  Cr  Cr15      1.0  0.03949  0.47503  0.96781  1.0000
  Cr  Cr16      1.0  0.30356  0.42772  0.54306  1.0000
  Cr  Cr17      1.0  0.03874  0.26876  0.07848  1.0000
  Cr  Cr18      1.0  0.51207  0.06888  0.10437  1.0000
  Cr  Cr19      1.0  0.43748  0.38345  0.00989  1.0000
  Si  Si7       1.0  0.51448  0.86109  0.19577  1.0000
  Si  Si8       1.0  0.53933  0.66796  0.62491  1.0000
  Si  Si9       1.0  0.98303  0.76728  0.16959  1.0000
  Si  Si10      1.0  0.39086  0.66512  0.12064  1.0000
  Si  Si11      1.0  0.90592  0.99811  0.30290  1.0000
  Fe  Fe9       1.0  0.45655  0.97559  0.39357  1.0000
  Fe  Fe10      1.0  0.45508  0.57871  0.58750  1.0000
  Fe  Fe11      1.0  0.67734  0.94527  0.91997  1.0000
  Fe  Fe12      1.0  0.23955  0.67043  0.87895  1.0000
  Fe  Fe13      1.0  0.17744  0.93765  0.06985  1.0000
  Fe  Fe14      1.0  0.68761  0.82750  0.83423  1.0000
  Fe  Fe15      1.0  0.80108  0.57962  0.31503  1.0000
  Fe  Fe16      1.0  0.85719  0.89179  0.18565  1.0000
  Fe  Fe17      1.0  0.47183  0.76371  0.99778  1.0000
  Fe  Fe18      1.0  0.14045  0.84871  0.87902  1.0000
  Fe  Fe19      1.0  0.80839  0.48288  0.55690  1.0000
  Fe  Fe20      1.0  0.82868  0.87485  0.53399  1.0000
  Fe  Fe21      1.0  0.34598  0.99775  0.87060  1.0000
  Fe  Fe22      1.0  0.11757  0.76584  0.66560  1.0000
  Fe  Fe23      1.0  0.02319  0.67237  0.47367  1.0000
  Fe  Fe24      1.0  0.63742  0.77403  0.49580  1.0000
  Fe  Fe25      1.0  0.04339  0.94710  0.57464  1.0000
  Cr  Cr20      1.0  0.84668  0.66166  0.12113  1.0000
  Cr  Cr21      1.0  0.83845  0.00865  0.81836  1.0000
  Cr  Cr22      1.0  0.98621  0.76769  0.16875  1.0000
  Cr  Cr23      1.0  0.46002  0.97885  0.38498  1.0000
  Cr  Cr24      1.0  0.44537  0.70552  0.38898  1.0000
  Cr  Cr25      1.0  0.95359  0.58914  0.69974  1.0000
  Cr  Cr26      1.0  0.28307  0.58522  0.28190  1.0000
  Cr  Cr27      1.0  0.20465  0.56920  0.97980  1.0000
  Cr  Cr28      1.0  0.25392  0.83379  0.37684  1.0000
  Cr  Cr29      1.0  0.77436  0.70548  0.82860  1.0000
  Cr  Cr30      1.0  0.40128  0.88635  0.68542  1.0000
  Cr  Cr31      1.0  0.67736  0.57100  0.94161  1.0000
