data_image0
_chemical_formula_structural       Cr6FeCr4SiFeCrFe3Cr4Fe3CrFeCr3FeCr3FeCr2FeSiFeCr2SiFeCr2
_chemical_formula_sum              "Cr28 Fe14 Si3"
_cell_length_a       2.28586
_cell_length_b       2.28586
_cell_length_c       93.8594
_cell_angle_alpha    55.9343
_cell_angle_beta     70.0648
_cell_angle_gamma    90

_space_group_name_H-M_alt    "P 1"
_space_group_IT_number       1

loop_
  _space_group_symop_operation_xyz
  'x, y, z'

loop_
  _atom_site_type_symbol
  _atom_site_label
  _atom_site_symmetry_multiplicity
  _atom_site_fract_x
  _atom_site_fract_y
  _atom_site_fract_z
  _atom_site_occupancy
  Cr  Cr1       1.0  0.33620  0.66912  0.03023  1.0000
  Cr  Cr2       1.0  0.56494  0.58524  0.05325  1.0000
  Cr  Cr3       1.0  0.80574  0.49967  0.07623  1.0000
  Cr  Cr4       1.0  0.29036  0.35749  0.12207  1.0000
  Cr  Cr5       1.0  0.04363  0.42999  0.09905  1.0000
  Cr  Cr6       1.0  0.52638  0.28017  0.14541  1.0000
  Fe  Fe1       1.0  0.00785  0.19000  0.19174  1.0000
  Cr  Cr7       1.0  0.76372  0.14961  0.26083  1.0000
  Cr  Cr8       1.0  0.26313  0.16725  0.21484  1.0000
  Cr  Cr9       1.0  0.50384  0.15188  0.23806  1.0000
  Cr  Cr10      1.0  0.77006  0.22478  0.16849  1.0000
  Si  Si1       1.0  0.51175  0.14995  0.32899  1.0000
  Fe  Fe2       1.0  0.01738  0.15380  0.28346  1.0000
  Cr  Cr11      1.0  0.27010  0.15564  0.30619  1.0000
  Fe  Fe3       1.0  0.75183  0.15031  0.35157  1.0000
  Fe  Fe4       1.0  0.98416  0.14833  0.37386  1.0000
  Fe  Fe5       1.0  0.41633  0.11907  0.41859  1.0000
  Cr  Cr12      1.0  0.20634  0.13626  0.39624  1.0000
  Cr  Cr13      1.0  0.62175  0.10542  0.44073  1.0000
  Cr  Cr14      1.0  0.82221  0.09234  0.46260  1.0000
  Cr  Cr15      1.0  0.19808  0.04905  0.50653  1.0000
  Fe  Fe6       1.0  0.01347  0.07577  0.48453  1.0000
  Fe  Fe7       1.0  0.37927  0.02400  0.52845  1.0000
  Fe  Fe8       1.0  0.56139  0.00539  0.55012  1.0000
  Cr  Cr16      1.0  0.74018  0.98914  0.57184  1.0000
  Fe  Fe9       1.0  0.91930  0.96816  0.59365  1.0000
  Cr  Cr17      1.0  0.29802  0.95461  0.63654  1.0000
  Cr  Cr18      1.0  0.10353  0.95380  0.61531  1.0000
  Cr  Cr19      1.0  0.49453  0.95876  0.65767  1.0000
  Fe  Fe10      1.0  0.69352  0.95660  0.67939  1.0000
  Cr  Cr20      1.0  0.89142  0.95020  0.70120  1.0000
  Cr  Cr21      1.0  0.10308  0.95547  0.72290  1.0000
  Cr  Cr22      1.0  0.32042  0.96553  0.74409  1.0000
  Fe  Fe11      1.0  0.99968  0.97384  0.80884  1.0000
  Cr  Cr23      1.0  0.54595  0.97831  0.76559  1.0000
  Cr  Cr24      1.0  0.76869  0.97184  0.78723  1.0000
  Fe  Fe12      1.0  0.23625  0.96941  0.83028  1.0000
  Si  Si2       1.0  0.93952  0.92722  0.89610  1.0000
  Fe  Fe13      1.0  0.70557  0.94447  0.87411  1.0000
  Cr  Cr25      1.0  0.47048  0.96346  0.85211  1.0000
  Cr  Cr26      1.0  0.18069  0.90457  0.91795  1.0000
  Si  Si3       1.0  0.10661  0.73717  0.00759  1.0000
  Fe  Fe14      1.0  0.64804  0.83897  0.96252  1.0000
  Cr  Cr27      1.0  0.41699  0.87861  0.94005  1.0000
  Cr  Cr28      1.0  0.87812  0.79252  0.98503  1.0000
