data_image0
_chemical_formula_structural       Cr4Fe6
_chemical_formula_sum              "Cr4 Fe6"
_cell_length_a       11.4293
_cell_length_b       2.28586
_cell_length_c       4.57172
_cell_angle_alpha    90
_cell_angle_beta     90
_cell_angle_gamma    90

_space_group_name_H-M_alt    "P 1"
_space_group_IT_number       1

loop_
  _space_group_symop_operation_xyz
  'x, y, z'

loop_
  _atom_site_type_symbol
  _atom_site_label
  _atom_site_symmetry_multiplicity
  _atom_site_fract_x
  _atom_site_fract_y
  _atom_site_fract_z
  _atom_site_occupancy
  Cr  Cr1       1.0  0.61775  0.12804  0.74688  1.0000
  Cr  Cr2       1.0  0.01809  0.99582  0.32890  1.0000
  Cr  Cr3       1.0  0.83610  0.70654  0.42639  1.0000
  Cr  Cr4       1.0  0.67944  0.28835  0.19377  1.0000
  Fe  Fe1       1.0  0.81602  0.18627  0.85764  1.0000
  Fe  Fe2       1.0  0.00266  0.49990  0.91468  1.0000
  Fe  Fe3       1.0  0.19530  0.27876  0.19519  1.0000
  Fe  Fe4       1.0  0.20196  0.77133  0.77667  1.0000
  Fe  Fe5       1.0  0.40746  0.97602  0.73224  1.0000
  Fe  Fe6       1.0  0.39531  0.59674  0.27843  1.0000
