data_image0
_chemical_formula_structural       Cr5FeCr3FeCrSi2Cr2SiCr2FeCr2FeCrFeCr2Si2Cr2FeCr3FeCr3SiCr2
_chemical_formula_sum              "Cr28 Fe7 Si6"
_cell_length_a       2.28586
_cell_length_b       2.28586
_cell_length_c       77.6519
_cell_angle_alpha    78.1084
_cell_angle_beta     69.314
_cell_angle_gamma    90

_space_group_name_H-M_alt    "P 1"
_space_group_IT_number       1

loop_
  _space_group_symop_operation_xyz
  'x, y, z'

loop_
  _atom_site_type_symbol
  _atom_site_label
  _atom_site_symmetry_multiplicity
  _atom_site_fract_x
  _atom_site_fract_y
  _atom_site_fract_z
  _atom_site_occupancy
  Cr  Cr1       1.0  0.56312  0.90029  0.07079  1.0000
  Cr  Cr2       1.0  0.16742  0.24165  0.02219  1.0000
  Cr  Cr3       1.0  0.75883  0.23051  0.09550  1.0000
  Cr  Cr4       1.0  0.36568  0.57075  0.04633  1.0000
  Cr  Cr5       1.0  0.97390  0.91438  0.99784  1.0000
  Fe  Fe1       1.0  0.54779  0.53959  0.19319  1.0000
  Cr  Cr6       1.0  0.95745  0.56591  0.11984  1.0000
  Cr  Cr7       1.0  0.15165  0.89857  0.14422  1.0000
  Cr  Cr8       1.0  0.35159  0.22293  0.16892  1.0000
  Fe  Fe2       1.0  0.74504  0.86867  0.21761  1.0000
  Cr  Cr9       1.0  0.94130  0.18998  0.24186  1.0000
  Si  Si1       1.0  0.14061  0.50457  0.26645  1.0000
  Si  Si2       1.0  0.35146  0.81857  0.29065  1.0000
  Cr  Cr10      1.0  0.77303  0.46152  0.33940  1.0000
  Cr  Cr11      1.0  0.56356  0.13879  0.31498  1.0000
  Si  Si3       1.0  0.98286  0.78769  0.36407  1.0000
  Cr  Cr12      1.0  0.19630  0.09918  0.38877  1.0000
  Cr  Cr13      1.0  0.40428  0.40540  0.41323  1.0000
  Fe  Fe3       1.0  0.13715  0.68121  0.44189  1.0000
  Cr  Cr14      1.0  0.33822  0.98906  0.46632  1.0000
  Cr  Cr15      1.0  0.54642  0.29147  0.49074  1.0000
  Fe  Fe4       1.0  0.97279  0.89466  0.53969  1.0000
  Cr  Cr16      1.0  0.75828  0.59210  0.51520  1.0000
  Fe  Fe5       1.0  0.19307  0.19987  0.56392  1.0000
  Cr  Cr17      1.0  0.41570  0.50243  0.58814  1.0000
  Cr  Cr18      1.0  0.63922  0.80927  0.61230  1.0000
  Si  Si4       1.0  0.86558  0.11945  0.63631  1.0000
  Si  Si5       1.0  0.53787  0.05573  0.70833  1.0000
  Cr  Cr19      1.0  0.31445  0.74116  0.68440  1.0000
  Cr  Cr20      1.0  0.09123  0.43009  0.66029  1.0000
  Fe  Fe6       1.0  0.97543  0.68884  0.75627  1.0000
  Cr  Cr21      1.0  0.18658  0.00727  0.78041  1.0000
  Cr  Cr22      1.0  0.39708  0.32757  0.80441  1.0000
  Cr  Cr23      1.0  0.75936  0.37232  0.73220  1.0000
  Fe  Fe7       1.0  0.60491  0.64902  0.82837  1.0000
  Cr  Cr24      1.0  0.20337  0.61643  0.90076  1.0000
  Cr  Cr25      1.0  0.00716  0.29376  0.87653  1.0000
  Cr  Cr26      1.0  0.80766  0.97241  0.85242  1.0000
  Si  Si6       1.0  0.39807  0.93972  0.92495  1.0000
  Cr  Cr27      1.0  0.78449  0.59217  0.97331  1.0000
  Cr  Cr28      1.0  0.59401  0.26671  0.94902  1.0000
