data_image0
_chemical_formula_structural       Fe2Cr6Si2CrSiFe3CrSiFe3Cr4SiCr2SiFe6Cr
_chemical_formula_sum              "Fe14 Cr15 Si6"
_cell_length_a       2.28586
_cell_length_b       4.57172
_cell_length_c       32.8082
_cell_angle_alpha    60.8096
_cell_angle_beta     65.2891
_cell_angle_gamma    90

_space_group_name_H-M_alt    "P 1"
_space_group_IT_number       1

loop_
  _space_group_symop_operation_xyz
  'x, y, z'

loop_
  _atom_site_type_symbol
  _atom_site_label
  _atom_site_symmetry_multiplicity
  _atom_site_fract_x
  _atom_site_fract_y
  _atom_site_fract_z
  _atom_site_occupancy
  Fe  Fe1       1.0  0.56630  0.16334  0.11183  1.0000
  Fe  Fe2       1.0  0.91670  0.95564  0.09082  1.0000
  Cr  Cr1       1.0  0.18795  0.12648  0.18642  1.0000
  Cr  Cr2       1.0  0.04689  0.79899  0.03446  1.0000
  Cr  Cr3       1.0  0.55819  0.22767  0.00740  1.0000
  Cr  Cr4       1.0  0.12494  0.52658  0.11232  1.0000
  Cr  Cr5       1.0  0.58700  0.22546  0.30368  1.0000
  Cr  Cr6       1.0  0.13144  0.62556  0.18520  1.0000
  Si  Si1       1.0  0.77294  0.75350  0.32562  1.0000
  Si  Si2       1.0  0.67349  0.05017  0.25463  1.0000
  Cr  Cr7       1.0  0.26490  0.62875  0.25333  1.0000
  Si  Si3       1.0  0.94847  0.40238  0.41451  1.0000
  Fe  Fe3       1.0  0.92451  0.38397  0.34887  1.0000
  Fe  Fe4       1.0  0.57978  0.76935  0.41653  1.0000
  Fe  Fe5       1.0  0.66797  0.90078  0.37196  1.0000
  Cr  Cr8       1.0  0.91609  0.11479  0.42336  1.0000
  Si  Si4       1.0  0.98789  0.20161  0.49125  1.0000
  Fe  Fe6       1.0  0.71107  0.47402  0.55015  1.0000
  Fe  Fe7       1.0  0.20729  0.22601  0.63048  1.0000
  Fe  Fe8       1.0  0.84354  0.90669  0.49438  1.0000
  Cr  Cr9       1.0  0.60526  0.55855  0.48321  1.0000
  Cr  Cr10      1.0  0.78530  0.11986  0.56920  1.0000
  Cr  Cr11      1.0  0.01716  0.69340  0.63684  1.0000
  Cr  Cr12      1.0  0.03120  0.76772  0.56932  1.0000
  Si  Si5       1.0  0.07659  0.97329  0.80836  1.0000
  Cr  Cr13      1.0  0.23782  0.21605  0.69278  1.0000
  Cr  Cr14      1.0  0.13261  0.07659  0.85968  1.0000
  Si  Si6       1.0  0.80006  0.03220  0.94206  1.0000
  Fe  Fe9       1.0  0.63594  0.56478  0.82392  1.0000
  Fe  Fe10      1.0  0.13671  0.69847  0.69406  1.0000
  Fe  Fe11      1.0  0.67923  0.84891  0.74852  1.0000
  Fe  Fe12      1.0  0.58227  0.42761  0.91045  1.0000
  Fe  Fe13      1.0  0.80116  0.66625  0.93567  1.0000
  Fe  Fe14      1.0  0.88582  0.58879  0.00959  1.0000
  Cr  Cr15      1.0  0.07012  0.37330  0.76603  1.0000
