data_image0
_chemical_formula_structural       SiFeCr3SiFe2Cr2Si3Cr2Fe3Cr2SiFe6Cr2SiFeCr2
_chemical_formula_sum              "Si7 Fe13 Cr13"
_cell_length_a       2.28586
_cell_length_b       43.4914
_cell_length_c       2.28586
_cell_angle_alpha    90
_cell_angle_beta     90
_cell_angle_gamma    86.9872

_space_group_name_H-M_alt    "P 1"
_space_group_IT_number       1

loop_
  _space_group_symop_operation_xyz
  'x, y, z'

loop_
  _atom_site_type_symbol
  _atom_site_label
  _atom_site_symmetry_multiplicity
  _atom_site_fract_x
  _atom_site_fract_y
  _atom_site_fract_z
  _atom_site_occupancy
  Si  Si1       1.0  0.95091  0.08731  0.71166  1.0000
  Fe  Fe1       1.0  0.97263  0.16570  0.61308  1.0000
  Cr  Cr1       1.0  0.42973  0.04446  0.36026  1.0000
  Cr  Cr2       1.0  0.95704  0.00504  0.91016  1.0000
  Cr  Cr3       1.0  0.44126  0.12692  0.16779  1.0000
  Si  Si2       1.0  0.82047  0.23879  0.53218  1.0000
  Fe  Fe2       1.0  0.63079  0.27428  0.93303  1.0000
  Fe  Fe3       1.0  0.16226  0.30456  0.39723  1.0000
  Cr  Cr4       1.0  0.64356  0.33509  0.99210  1.0000
  Cr  Cr5       1.0  0.42406  0.20288  0.14720  1.0000
  Si  Si3       1.0  0.51495  0.40201  0.63089  1.0000
  Si  Si4       1.0  0.06589  0.36967  0.15385  1.0000
  Si  Si5       1.0  0.59651  0.49406  0.99211  1.0000
  Cr  Cr6       1.0  0.91708  0.43345  0.06786  1.0000
  Cr  Cr7       1.0  0.26550  0.46343  0.47146  1.0000
  Fe  Fe4       1.0  0.95558  0.62966  0.74654  1.0000
  Fe  Fe5       1.0  0.89567  0.52371  0.57027  1.0000
  Fe  Fe6       1.0  0.51760  0.55088  0.79367  1.0000
  Cr  Cr8       1.0  0.09715  0.58031  0.15463  1.0000
  Cr  Cr9       1.0  0.63598  0.60093  0.40764  1.0000
  Si  Si6       1.0  0.07386  0.70852  0.89075  1.0000
  Fe  Fe7       1.0  0.43803  0.76421  0.00292  1.0000
  Fe  Fe8       1.0  0.52236  0.66999  0.09166  1.0000
  Fe  Fe9       1.0  0.44947  0.71651  0.57827  1.0000
  Fe  Fe10      1.0  0.25554  0.66363  0.37045  1.0000
  Fe  Fe11      1.0  0.51242  0.79495  0.32740  1.0000
  Fe  Fe12      1.0  0.94316  0.75214  0.42001  1.0000
  Cr  Cr10      1.0  0.11527  0.81584  0.75371  1.0000
  Cr  Cr11      1.0  0.83957  0.83987  0.10779  1.0000
  Si  Si7       1.0  0.89948  0.92838  0.22210  1.0000
  Fe  Fe13      1.0  0.42302  0.96372  0.67669  1.0000
  Cr  Cr12      1.0  0.00941  0.89366  0.88819  1.0000
  Cr  Cr13      1.0  0.44186  0.86583  0.52781  1.0000
