data_image0
_chemical_formula_structural       Fe2Cr3Fe4SiFe3Cr2Si2CrSiFeCrFeCr3SiFe2SiCr3Si5FeCr5
_chemical_formula_sum              "Fe14 Cr18 Si11"
_cell_length_a       2.28586
_cell_length_b       2.28586
_cell_length_c       75.5025
_cell_angle_alpha    74.1883
_cell_angle_beta     77.7647
_cell_angle_gamma    90

_space_group_name_H-M_alt    "P 1"
_space_group_IT_number       1

loop_
  _space_group_symop_operation_xyz
  'x, y, z'

loop_
  _atom_site_type_symbol
  _atom_site_label
  _atom_site_symmetry_multiplicity
  _atom_site_fract_x
  _atom_site_fract_y
  _atom_site_fract_z
  _atom_site_occupancy
  Fe  Fe1       1.0  0.26762  0.30692  0.02802  1.0000
  Fe  Fe2       1.0  0.46817  0.77650  0.98341  1.0000
  Cr  Cr1       1.0  0.86700  0.04243  0.00570  1.0000
  Cr  Cr2       1.0  0.06463  0.84614  0.07278  1.0000
  Cr  Cr3       1.0  0.66654  0.57226  0.05046  1.0000
  Fe  Fe3       1.0  0.65559  0.99621  0.16164  1.0000
  Fe  Fe4       1.0  0.46755  0.12838  0.09469  1.0000
  Fe  Fe5       1.0  0.26453  0.70496  0.13900  1.0000
  Fe  Fe6       1.0  0.86912  0.41432  0.11672  1.0000
  Si  Si1       1.0  0.81840  0.91492  0.22878  1.0000
  Fe  Fe7       1.0  0.19695  0.22981  0.25144  1.0000
  Fe  Fe8       1.0  0.56924  0.54320  0.27414  1.0000
  Fe  Fe9       1.0  0.04525  0.29493  0.18421  1.0000
  Cr  Cr4       1.0  0.93831  0.86559  0.29686  1.0000
  Cr  Cr5       1.0  0.43391  0.60325  0.20633  1.0000
  Si  Si2       1.0  0.30047  0.19066  0.31993  1.0000
  Si  Si3       1.0  0.71066  0.52519  0.41337  1.0000
  Cr  Cr6       1.0  0.35802  0.18683  0.39019  1.0000
  Si  Si4       1.0  0.65856  0.51507  0.34333  1.0000
  Fe  Fe10      1.0  0.00871  0.84756  0.36679  1.0000
  Cr  Cr7       1.0  0.05783  0.84901  0.43717  1.0000
  Fe  Fe11      1.0  0.74399  0.51004  0.48541  1.0000
  Cr  Cr8       1.0  0.08264  0.84420  0.50911  1.0000
  Cr  Cr9       1.0  0.39513  0.18588  0.46152  1.0000
  Cr  Cr10      1.0  0.43820  0.17424  0.53344  1.0000
  Si  Si5       1.0  0.46013  0.13744  0.60605  1.0000
  Fe  Fe12      1.0  0.76290  0.49987  0.55792  1.0000
  Fe  Fe13      1.0  0.12979  0.81291  0.58207  1.0000
  Si  Si6       1.0  0.54450  0.06829  0.67874  1.0000
  Cr  Cr11      1.0  0.83180  0.45053  0.63030  1.0000
  Cr  Cr12      1.0  0.90655  0.38099  0.70258  1.0000
  Cr  Cr13      1.0  0.18036  0.76107  0.65467  1.0000
  Si  Si7       1.0  0.27654  0.68073  0.72652  1.0000
  Si  Si8       1.0  0.01756  0.27424  0.77462  1.0000
  Si  Si9       1.0  0.64103  0.97995  0.75065  1.0000
  Si  Si10      1.0  0.38616  0.56765  0.79849  1.0000
  Si  Si11      1.0  0.14493  0.14145  0.84534  1.0000
  Fe  Fe14      1.0  0.76857  0.85651  0.82200  1.0000
  Cr  Cr14      1.0  0.52538  0.43019  0.86848  1.0000
  Cr  Cr15      1.0  0.07505  0.51308  0.96079  1.0000
  Cr  Cr16      1.0  0.68305  0.25188  0.93785  1.0000
  Cr  Cr17      1.0  0.29922  0.97844  0.91490  1.0000
  Cr  Cr18      1.0  0.91198  0.70363  0.89184  1.0000
