data_image0
_chemical_formula_structural       Cr4Fe3
_chemical_formula_sum              "Cr4 Fe3"
_cell_length_a       2.28586
_cell_length_b       2.28586
_cell_length_c       18.4292
_cell_angle_alpha    90
_cell_angle_beta     60.2551
_cell_angle_gamma    90

_space_group_name_H-M_alt    "P 1"
_space_group_IT_number       1

loop_
  _space_group_symop_operation_xyz
  'x, y, z'

loop_
  _atom_site_type_symbol
  _atom_site_label
  _atom_site_symmetry_multiplicity
  _atom_site_fract_x
  _atom_site_fract_y
  _atom_site_fract_z
  _atom_site_occupancy
  Cr  Cr1       1.0  0.27328  0.98628  0.29838  1.0000
  Cr  Cr2       1.0  0.34412  0.42301  0.12635  1.0000
  Cr  Cr3       1.0  0.31186  0.86930  0.01390  1.0000
  Cr  Cr4       1.0  0.66578  0.01548  0.57425  1.0000
  Fe  Fe1       1.0  0.65708  0.84861  0.72911  1.0000
  Fe  Fe2       1.0  0.54659  0.51455  0.47910  1.0000
  Fe  Fe3       1.0  0.20228  0.40609  0.91571  1.0000
