data_image0
_chemical_formula_structural       SiFe2Cr2FeCr2Fe2Cr3Fe3Cr4FeCr5SiFeCr2Fe3Cr2FeCr3
_chemical_formula_sum              "Si2 Fe14 Cr23"
_cell_length_a       2.28586
_cell_length_b       2.28586
_cell_length_c       64.0448
_cell_angle_alpha    64.6404
_cell_angle_beta     81.7921
_cell_angle_gamma    90

_space_group_name_H-M_alt    "P 1"
_space_group_IT_number       1

loop_
  _space_group_symop_operation_xyz
  'x, y, z'

loop_
  _atom_site_type_symbol
  _atom_site_label
  _atom_site_symmetry_multiplicity
  _atom_site_fract_x
  _atom_site_fract_y
  _atom_site_fract_z
  _atom_site_occupancy
  Si  Si1       1.0  0.33874  0.82602  0.12087  1.0000
  Fe  Fe1       1.0  0.18076  0.33992  0.03757  1.0000
  Fe  Fe2       1.0  0.58241  0.51455  0.06476  1.0000
  Cr  Cr1       1.0  0.96680  0.66867  0.09259  1.0000
  Cr  Cr2       1.0  0.77170  0.16559  0.01115  1.0000
  Fe  Fe3       1.0  0.09788  0.25259  0.17766  1.0000
  Cr  Cr3       1.0  0.71618  0.02436  0.14916  1.0000
  Cr  Cr4       1.0  0.47185  0.48109  0.20629  1.0000
  Fe  Fe4       1.0  0.78968  0.87538  0.23693  1.0000
  Fe  Fe5       1.0  0.14877  0.10106  0.26453  1.0000
  Cr  Cr5       1.0  0.21286  0.02193  0.34572  1.0000
  Cr  Cr6       1.0  0.51099  0.33445  0.29165  1.0000
  Cr  Cr7       1.0  0.83926  0.77030  0.32022  1.0000
  Fe  Fe6       1.0  0.77534  0.77559  0.43541  1.0000
  Fe  Fe7       1.0  0.98036  0.47119  0.39174  1.0000
  Fe  Fe8       1.0  0.59373  0.25871  0.36913  1.0000
  Cr  Cr8       1.0  0.37232  0.64165  0.41377  1.0000
  Cr  Cr9       1.0  0.20605  0.90197  0.45644  1.0000
  Cr  Cr10      1.0  0.15866  0.20454  0.49885  1.0000
  Cr  Cr11      1.0  0.67233  0.03621  0.47757  1.0000
  Fe  Fe9       1.0  0.55981  0.97815  0.56238  1.0000
  Cr  Cr12      1.0  0.64709  0.42627  0.51945  1.0000
  Cr  Cr13      1.0  0.45848  0.51882  0.61099  1.0000
  Cr  Cr14      1.0  0.87553  0.75517  0.63702  1.0000
  Cr  Cr15      1.0  0.11071  0.68989  0.54067  1.0000
  Cr  Cr16      1.0  0.00814  0.25314  0.58589  1.0000
  Si  Si2       1.0  0.90329  0.88862  0.69779  1.0000
  Fe  Fe10      1.0  0.30748  0.98985  0.72528  1.0000
  Cr  Cr17      1.0  0.74516  0.09759  0.75222  1.0000
  Cr  Cr18      1.0  0.91869  0.91701  0.66705  1.0000
  Fe  Fe11      1.0  0.05421  0.56905  0.83126  1.0000
  Fe  Fe12      1.0  0.87626  0.11660  0.88251  1.0000
  Fe  Fe13      1.0  0.63029  0.37358  0.80498  1.0000
  Cr  Cr19      1.0  0.46876  0.82067  0.85719  1.0000
  Cr  Cr20      1.0  0.18931  0.22327  0.77879  1.0000
  Fe  Fe14      1.0  0.01716  0.85752  0.95901  1.0000
  Cr  Cr21      1.0  0.38315  0.00923  0.98527  1.0000
  Cr  Cr22      1.0  0.27368  0.41687  0.90732  1.0000
  Cr  Cr23      1.0  0.65328  0.67174  0.93280  1.0000
