data_image0
_chemical_formula_structural       Fe2Cr7Fe2Cr2FeCr7FeCrFeCr4Fe2CrFeCr6FeCr2Fe2Cr2FeCr3
_chemical_formula_sum              "Fe14 Cr35"
_cell_length_a       2.28586
_cell_length_b       2.28586
_cell_length_c       111.422
_cell_angle_alpha    70.8378
_cell_angle_beta     57.7648
_cell_angle_gamma    90

_space_group_name_H-M_alt    "P 1"
_space_group_IT_number       1

loop_
  _space_group_symop_operation_xyz
  'x, y, z'

loop_
  _atom_site_type_symbol
  _atom_site_label
  _atom_site_symmetry_multiplicity
  _atom_site_fract_x
  _atom_site_fract_y
  _atom_site_fract_z
  _atom_site_occupancy
  Fe  Fe1       1.0  0.33158  0.94494  0.02525  1.0000
  Fe  Fe2       1.0  0.28766  0.72313  0.00780  1.0000
  Cr  Cr1       1.0  0.95118  0.83409  0.04896  1.0000
  Cr  Cr2       1.0  0.01685  0.90181  0.07061  1.0000
  Cr  Cr3       1.0  0.06038  0.12016  0.08818  1.0000
  Cr  Cr4       1.0  0.24239  0.50278  0.12252  1.0000
  Cr  Cr5       1.0  0.07851  0.82585  0.15256  1.0000
  Cr  Cr6       1.0  0.47423  0.81612  0.20891  1.0000
  Cr  Cr7       1.0  0.06122  0.73306  0.17459  1.0000
  Fe  Fe3       1.0  0.91936  0.08016  0.23332  1.0000
  Fe  Fe4       1.0  0.83232  0.56246  0.30791  1.0000
  Cr  Cr8       1.0  0.83953  0.39825  0.28790  1.0000
  Cr  Cr9       1.0  0.67624  0.13780  0.25741  1.0000
  Fe  Fe5       1.0  0.47492  0.28009  0.37571  1.0000
  Cr  Cr10      1.0  0.69295  0.58602  0.33193  1.0000
  Cr  Cr11      1.0  0.54372  0.66822  0.35383  1.0000
  Cr  Cr12      1.0  0.52039  0.50135  0.39316  1.0000
  Cr  Cr13      1.0  0.27431  0.06683  0.43493  1.0000
  Cr  Cr14      1.0  0.33522  0.68352  0.41318  1.0000
  Cr  Cr15      1.0  0.48404  0.24508  0.45603  1.0000
  Cr  Cr16      1.0  0.57858  0.45273  0.47479  1.0000
  Fe  Fe6       1.0  0.80827  0.87467  0.51327  1.0000
  Cr  Cr17      1.0  0.76673  0.62979  0.49530  1.0000
  Fe  Fe7       1.0  0.84323  0.13241  0.53142  1.0000
  Cr  Cr18      1.0  0.42046  0.08964  0.60636  1.0000
  Cr  Cr19      1.0  0.00455  0.82660  0.58322  1.0000
  Cr  Cr20      1.0  0.95482  0.59667  0.56583  1.0000
  Cr  Cr21      1.0  0.89849  0.36266  0.54868  1.0000
  Fe  Fe8       1.0  0.52635  0.55526  0.64082  1.0000
  Fe  Fe9       1.0  0.47269  0.32100  0.62352  1.0000
  Cr  Cr22      1.0  0.57405  0.78272  0.65818  1.0000
  Fe  Fe10      1.0  0.60315  0.02416  0.67608  1.0000
  Cr  Cr23      1.0  0.65754  0.25226  0.69340  1.0000
  Cr  Cr24      1.0  0.68527  0.28938  0.75020  1.0000
  Cr  Cr25      1.0  0.76360  0.70195  0.72830  1.0000
  Cr  Cr26      1.0  0.70968  0.47781  0.71078  1.0000
  Cr  Cr27      1.0  0.72689  0.52385  0.76781  1.0000
  Cr  Cr28      1.0  0.77818  0.74257  0.78513  1.0000
  Fe  Fe11      1.0  0.82508  0.99157  0.80267  1.0000
  Cr  Cr29      1.0  0.11547  0.16830  0.82426  1.0000
  Cr  Cr30      1.0  0.12875  0.44016  0.84299  1.0000
  Fe  Fe12      1.0  0.26989  0.10098  0.89531  1.0000
  Fe  Fe13      1.0  0.28110  0.29789  0.91349  1.0000
  Cr  Cr31      1.0  0.22399  0.88556  0.87784  1.0000
  Cr  Cr32      1.0  0.17776  0.66333  0.86042  1.0000
  Fe  Fe14      1.0  0.28397  0.48009  0.97019  1.0000
  Cr  Cr33      1.0  0.32668  0.51610  0.93091  1.0000
  Cr  Cr34      1.0  0.37602  0.73825  0.94819  1.0000
  Cr  Cr35      1.0  0.24299  0.50313  0.99034  1.0000
