data_image0
_chemical_formula_structural       Fe10Cr8Si2Fe7Cr14
_chemical_formula_sum              "Fe17 Cr22 Si2"
_cell_length_a       2.28586
_cell_length_b       11.6556
_cell_length_c       12.3097
_cell_angle_alpha    111.357
_cell_angle_beta     90
_cell_angle_gamma    78.6901

_space_group_name_H-M_alt    "P 1"
_space_group_IT_number       1

loop_
  _space_group_symop_operation_xyz
  'x, y, z'

loop_
  _atom_site_type_symbol
  _atom_site_label
  _atom_site_symmetry_multiplicity
  _atom_site_fract_x
  _atom_site_fract_y
  _atom_site_fract_z
  _atom_site_occupancy
  Fe  Fe1       1.0  0.73490  0.28441  0.54745  1.0000
  Fe  Fe2       1.0  0.93518  0.23397  0.14544  1.0000
  Fe  Fe3       1.0  0.91967  0.59659  0.82087  1.0000
  Fe  Fe4       1.0  0.54299  0.47664  0.88376  1.0000
  Fe  Fe5       1.0  0.77144  0.23293  0.95861  1.0000
  Fe  Fe6       1.0  0.92346  0.63165  0.00112  1.0000
  Fe  Fe7       1.0  0.13332  0.38787  0.71931  1.0000
  Fe  Fe8       1.0  0.45252  0.10757  0.99294  1.0000
  Fe  Fe9       1.0  0.40303  0.11982  0.79353  1.0000
  Fe  Fe10      1.0  0.07684  0.00738  0.27886  1.0000
  Cr  Cr1       1.0  0.19281  0.38775  0.29309  1.0000
  Cr  Cr2       1.0  0.14141  0.41029  0.49158  1.0000
  Cr  Cr3       1.0  0.04401  0.01240  0.07010  1.0000
  Cr  Cr4       1.0  0.32496  0.20419  0.64851  1.0000
  Cr  Cr5       1.0  0.77654  0.27489  0.34866  1.0000
  Cr  Cr6       1.0  0.47625  0.12462  0.21569  1.0000
  Cr  Cr7       1.0  0.72370  0.28806  0.81616  1.0000
  Cr  Cr8       1.0  0.32108  0.15690  0.40594  1.0000
  Si  Si1       1.0  0.58027  0.53954  0.32122  1.0000
  Si  Si2       1.0  0.68274  0.89640  0.12358  1.0000
  Fe  Fe11      1.0  0.58969  0.37599  0.13098  1.0000
  Fe  Fe12      1.0  0.71735  0.05173  0.47172  1.0000
  Fe  Fe13      1.0  0.34631  0.75426  0.56876  1.0000
  Fe  Fe14      1.0  0.54615  0.54288  0.45943  1.0000
  Fe  Fe15      1.0  0.01535  0.53848  0.19538  1.0000
  Fe  Fe16      1.0  0.32438  0.88066  0.46854  1.0000
  Fe  Fe17      1.0  0.54133  0.50029  0.65458  1.0000
  Cr  Cr9       1.0  0.27590  0.76222  0.97179  1.0000
  Cr  Cr10      1.0  0.27136  0.72045  0.78725  1.0000
  Cr  Cr11      1.0  0.41204  0.71230  0.28104  1.0000
  Cr  Cr12      1.0  0.06750  0.05660  0.62496  1.0000
  Cr  Cr13      1.0  0.78032  0.92665  0.64670  1.0000
  Cr  Cr14      1.0  0.38961  0.56527  0.09044  1.0000
  Cr  Cr15      1.0  0.00309  0.99592  0.84196  1.0000
  Cr  Cr16      1.0  0.93602  0.70153  0.42041  1.0000
  Cr  Cr17      1.0  0.38224  0.76084  0.15252  1.0000
  Cr  Cr18      1.0  0.63238  0.88818  0.92569  1.0000
  Cr  Cr19      1.0  0.08615  0.40129  0.98891  1.0000
  Cr  Cr20      1.0  0.55782  0.83550  0.73566  1.0000
  Cr  Cr21      1.0  0.94328  0.63041  0.62182  1.0000
  Cr  Cr22      1.0  0.76640  0.87866  0.31459  1.0000
