data_image0
_chemical_formula_structural       MoWNb2WMo2W2TaNbMoTa2MoNbMo2NbMoNb2WTaMo5TaWMoTaMoTaMoWTaNbW
_chemical_formula_sum              "Mo16 W8 Nb8 Ta8"
_cell_length_a       15.8
_cell_length_b       6.32
_cell_length_c       6.32
_cell_angle_alpha    90
_cell_angle_beta     90
_cell_angle_gamma    90

_space_group_name_H-M_alt    "P 1"
_space_group_IT_number       1

loop_
  _space_group_symop_operation_xyz
  'x, y, z'

loop_
  _atom_site_type_symbol
  _atom_site_label
  _atom_site_symmetry_multiplicity
  _atom_site_fract_x
  _atom_site_fract_y
  _atom_site_fract_z
  _atom_site_occupancy
  Mo  Mo1       1.0  0.00000  0.00000  0.00000  1.0000
  W   W1        1.0  0.10000  0.25000  0.25000  1.0000
  Nb  Nb1       1.0  0.00000  0.00000  0.50000  1.0000
  Nb  Nb2       1.0  0.10000  0.25000  0.75000  1.0000
  W   W2        1.0  0.00000  0.50000  0.00000  1.0000
  Mo  Mo2       1.0  0.10000  0.75000  0.25000  1.0000
  Mo  Mo3       1.0  0.00000  0.50000  0.50000  1.0000
  W   W3        1.0  0.10000  0.75000  0.75000  1.0000
  W   W4        1.0  0.20000  0.00000  0.00000  1.0000
  Ta  Ta1       1.0  0.30000  0.25000  0.25000  1.0000
  Nb  Nb3       1.0  0.20000  0.00000  0.50000  1.0000
  Mo  Mo4       1.0  0.30000  0.25000  0.75000  1.0000
  Ta  Ta2       1.0  0.20000  0.50000  0.00000  1.0000
  Ta  Ta3       1.0  0.30000  0.75000  0.25000  1.0000
  Mo  Mo5       1.0  0.20000  0.50000  0.50000  1.0000
  Nb  Nb4       1.0  0.30000  0.75000  0.75000  1.0000
  Mo  Mo6       1.0  0.40000  0.00000  0.00000  1.0000
  Mo  Mo7       1.0  0.50000  0.25000  0.25000  1.0000
  Nb  Nb5       1.0  0.40000  0.00000  0.50000  1.0000
  Mo  Mo8       1.0  0.50000  0.25000  0.75000  1.0000
  Nb  Nb6       1.0  0.40000  0.50000  0.00000  1.0000
  Nb  Nb7       1.0  0.50000  0.75000  0.25000  1.0000
  W   W5        1.0  0.40000  0.50000  0.50000  1.0000
  Ta  Ta4       1.0  0.50000  0.75000  0.75000  1.0000
  Mo  Mo9       1.0  0.60000  0.00000  0.00000  1.0000
  Mo  Mo10      1.0  0.70000  0.25000  0.25000  1.0000
  Mo  Mo11      1.0  0.60000  0.00000  0.50000  1.0000
  Mo  Mo12      1.0  0.70000  0.25000  0.75000  1.0000
  Mo  Mo13      1.0  0.60000  0.50000  0.00000  1.0000
  Ta  Ta5       1.0  0.70000  0.75000  0.25000  1.0000
  W   W6        1.0  0.60000  0.50000  0.50000  1.0000
  Mo  Mo14      1.0  0.70000  0.75000  0.75000  1.0000
  Ta  Ta6       1.0  0.80000  0.00000  0.00000  1.0000
  Mo  Mo15      1.0  0.90000  0.25000  0.25000  1.0000
  Ta  Ta7       1.0  0.80000  0.00000  0.50000  1.0000
  Mo  Mo16      1.0  0.90000  0.25000  0.75000  1.0000
  W   W7        1.0  0.80000  0.50000  0.00000  1.0000
  Ta  Ta8       1.0  0.90000  0.75000  0.25000  1.0000
  Nb  Nb8       1.0  0.80000  0.50000  0.50000  1.0000
  W   W8        1.0  0.90000  0.75000  0.75000  1.0000
