data_image0
_chemical_formula_structural       WHW2
_chemical_formula_sum              "W3 H1"
_cell_length_a       3.19
_cell_length_b       3.19
_cell_length_c       5.29002
_cell_angle_alpha    107.548
_cell_angle_beta     107.548
_cell_angle_gamma    90

_space_group_name_H-M_alt    "P 1"
_space_group_IT_number       1

loop_
  _space_group_symop_operation_xyz
  'x, y, z'

loop_
  _atom_site_type_symbol
  _atom_site_label
  _atom_site_symmetry_multiplicity
  _atom_site_fract_x
  _atom_site_fract_y
  _atom_site_fract_z
  _atom_site_occupancy
  W   W1        1.0  0.00000  0.00000  0.00000  1.0000
  H   H1        1.0  0.66667  0.66667  0.83333  1.0000
  W   W2        1.0  0.66667  0.66667  0.33333  1.0000
  W   W3        1.0  0.33333  0.33333  0.66667  1.0000
