data_image0
_chemical_formula_structural       Co2
_chemical_formula_sum              "Co2"
_cell_length_a       1.748
_cell_length_b       1.748
_cell_length_c       1.311
_cell_angle_alpha    90
_cell_angle_beta     90
_cell_angle_gamma    120

_space_group_name_H-M_alt    "P 1"
_space_group_IT_number       1

loop_
  _space_group_symop_operation_xyz
  'x, y, z'

loop_
  _atom_site_type_symbol
  _atom_site_label
  _atom_site_symmetry_multiplicity
  _atom_site_fract_x
  _atom_site_fract_y
  _atom_site_fract_z
  _atom_site_occupancy
  Co  Co1       1.0  0.38139  0.76278  0.85812  1.0000
  Co  Co2       1.0  0.76278  0.38139  0.28604  1.0000
