data_image0
_chemical_formula_structural       Cr5
_chemical_formula_sum              "Cr5"
_cell_length_a       4.26948
_cell_length_b       5.46249
_cell_length_c       6.48409
_cell_angle_alpha    90
_cell_angle_beta     90
_cell_angle_gamma    90

_space_group_name_H-M_alt    "P 1"
_space_group_IT_number       1

loop_
  _space_group_symop_operation_xyz
  'x, y, z'

loop_
  _atom_site_type_symbol
  _atom_site_label
  _atom_site_symmetry_multiplicity
  _atom_site_fract_x
  _atom_site_fract_y
  _atom_site_fract_z
  _atom_site_occupancy
  Cr  Cr1       1.0  0.22852  0.41107  0.75884  1.0000
  Cr  Cr2       1.0  0.86039  0.52661  0.59306  1.0000
  Cr  Cr3       1.0  0.17054  0.00854  0.21094  1.0000
  Cr  Cr4       1.0  0.01575  0.58923  0.12756  1.0000
  Cr  Cr5       1.0  0.61315  0.96072  0.37439  1.0000
