data_image0
_chemical_formula_structural       WTaTiNbTiW3TiW7NbWMoTaTiMoW5
_chemical_formula_sum              "W17 Ta2 Ti4 Nb2 Mo2"
_cell_length_a       8.20992
_cell_length_b       8.20992
_cell_length_c       8.20992
_cell_angle_alpha    109.471
_cell_angle_beta     109.471
_cell_angle_gamma    109.471

_space_group_name_H-M_alt    "P 1"
_space_group_IT_number       1

loop_
  _space_group_symop_operation_xyz
  'x, y, z'

loop_
  _atom_site_type_symbol
  _atom_site_label
  _atom_site_symmetry_multiplicity
  _atom_site_fract_x
  _atom_site_fract_y
  _atom_site_fract_z
  _atom_site_occupancy
  W   W1        1.0  0.00000  0.00000  0.00000  1.0000
  Ta  Ta1       1.0  0.00000  0.00000  0.33333  1.0000
  Ti  Ti1       1.0  0.00000  0.00000  0.66667  1.0000
  Nb  Nb1       1.0  0.00000  0.33333  0.00000  1.0000
  Ti  Ti2       1.0  0.00000  0.33333  0.33333  1.0000
  W   W2        1.0  1.00000  0.33333  0.66667  1.0000
  W   W3        1.0  0.00000  0.66667  0.00000  1.0000
  W   W4        1.0  1.00000  0.66667  0.33333  1.0000
  Ti  Ti3       1.0  0.00000  0.66667  0.66667  1.0000
  W   W5        1.0  0.33333  0.00000  0.00000  1.0000
  W   W6        1.0  0.33333  0.00000  0.33333  1.0000
  W   W7        1.0  0.33333  0.00000  0.66667  1.0000
  W   W8        1.0  0.33333  0.33333  0.00000  1.0000
  W   W9        1.0  0.33333  0.33333  0.33333  1.0000
  W   W10       1.0  0.33333  0.33333  0.66667  1.0000
  W   W11       1.0  0.33333  0.66667  0.00000  1.0000
  Nb  Nb2       1.0  0.33333  0.66667  0.33333  1.0000
  W   W12       1.0  0.33333  0.66667  0.66667  1.0000
  Mo  Mo1       1.0  0.66667  0.00000  0.00000  1.0000
  Ta  Ta2       1.0  0.66667  0.00000  0.33333  1.0000
  Ti  Ti4       1.0  0.66667  0.00000  0.66667  1.0000
  Mo  Mo2       1.0  0.66667  0.33333  0.00000  1.0000
  W   W13       1.0  0.66667  0.33333  0.33333  1.0000
  W   W14       1.0  0.66667  0.33333  0.66667  1.0000
  W   W15       1.0  0.66667  0.66667  0.00000  1.0000
  W   W16       1.0  0.66667  0.66667  0.33333  1.0000
  W   W17       1.0  0.66667  0.66667  0.66667  1.0000
