data_image0
_chemical_formula_structural       Cr8
_chemical_formula_sum              "Cr8"
_cell_length_a       5.76
_cell_length_b       5.76
_cell_length_c       2.88
_cell_angle_alpha    90
_cell_angle_beta     90
_cell_angle_gamma    90

_space_group_name_H-M_alt    "P 1"
_space_group_IT_number       1

loop_
  _space_group_symop_operation_xyz
  'x, y, z'

loop_
  _atom_site_type_symbol
  _atom_site_label
  _atom_site_symmetry_multiplicity
  _atom_site_fract_x
  _atom_site_fract_y
  _atom_site_fract_z
  _atom_site_occupancy
  Cr  Cr1       1.0  0.80790  0.85101  0.07187  1.0000
  Cr  Cr2       1.0  0.74209  0.62771  0.38600  1.0000
  Cr  Cr3       1.0  0.62351  0.65831  0.88604  1.0000
  Cr  Cr4       1.0  0.53979  0.90600  0.07117  1.0000
  Cr  Cr5       1.0  0.42648  0.76075  0.49171  1.0000
  Cr  Cr6       1.0  0.94455  0.80491  0.55583  1.0000
  Cr  Cr7       1.0  0.67546  0.88251  0.56844  1.0000
  Cr  Cr8       1.0  0.71788  0.10792  0.23539  1.0000
