data_image0
_chemical_formula_structural       W3TaTiW4TiW2TaW3
_chemical_formula_sum              "W12 Ta2 Ti2"
_cell_length_a       6.32
_cell_length_b       6.32
_cell_length_c       6.32
_cell_angle_alpha    90
_cell_angle_beta     90
_cell_angle_gamma    90

_space_group_name_H-M_alt    "P 1"
_space_group_IT_number       1

loop_
  _space_group_symop_operation_xyz
  'x, y, z'

loop_
  _atom_site_type_symbol
  _atom_site_label
  _atom_site_symmetry_multiplicity
  _atom_site_fract_x
  _atom_site_fract_y
  _atom_site_fract_z
  _atom_site_occupancy
  W   W1        1.0  0.00000  0.00000  0.00000  1.0000
  W   W2        1.0  0.25000  0.25000  0.25000  1.0000
  W   W3        1.0  0.00000  0.00000  0.50000  1.0000
  Ta  Ta1       1.0  0.25000  0.25000  0.75000  1.0000
  Ti  Ti1       1.0  0.00000  0.50000  0.00000  1.0000
  W   W4        1.0  0.25000  0.75000  0.25000  1.0000
  W   W5        1.0  0.00000  0.50000  0.50000  1.0000
  W   W6        1.0  0.25000  0.75000  0.75000  1.0000
  W   W7        1.0  0.50000  0.00000  0.00000  1.0000
  Ti  Ti2       1.0  0.75000  0.25000  0.25000  1.0000
  W   W8        1.0  0.50000  0.00000  0.50000  1.0000
  W   W9        1.0  0.75000  0.25000  0.75000  1.0000
  Ta  Ta2       1.0  0.50000  0.50000  0.00000  1.0000
  W   W10       1.0  0.75000  0.75000  0.25000  1.0000
  W   W11       1.0  0.50000  0.50000  0.50000  1.0000
  W   W12       1.0  0.75000  0.75000  0.75000  1.0000
