data_image0
_chemical_formula_structural       TiNbMoNbW2TiTa2Ti2WTiMoWTiWTiWTiW2TaTiWNbTa2W2MoNb2TaWMoWTaNbMoNbTiMoTaNbW2Mo2W2TaW3Mo3WMoNb3Mo2TaTiWNbWMoW2MoTaNb2MoNbWNb2WMoTaWTaWTi2WTiNbTa2WMoWNb2MoTiWTaMoWMoNb2TiTaTiNbMoW2Nb2WNbTa2NbW2TiMoNbTa2TiW2TaMoWTaWTiTaWTaTiW2Ti2NbTiNbTiWTiMoTiMoTiMoW2TaW2MoNbWTaNb2WMoNbTiMoTaWTiMo2Nb2MoTaWNbTiTaWMoNbWMo2NbMoTiTaWTaNbWTi2NbTiNbW2NbTaMoWTaWMoW2Mo2W2MoTiWMoTaNbMo2TiWNbTaNbTaNb2Mo2TiTaTiNb2TiTa2WMo2
_chemical_formula_sum              "Ti40 Nb50 Mo50 W70 Ta40"
_cell_length_a       15.8
_cell_length_b       15.8
_cell_length_c       15.8
_cell_angle_alpha    90
_cell_angle_beta     90
_cell_angle_gamma    90

_space_group_name_H-M_alt    "P 1"
_space_group_IT_number       1

loop_
  _space_group_symop_operation_xyz
  'x, y, z'

loop_
  _atom_site_type_symbol
  _atom_site_label
  _atom_site_symmetry_multiplicity
  _atom_site_fract_x
  _atom_site_fract_y
  _atom_site_fract_z
  _atom_site_occupancy
  Ti  Ti1       1.0  0.00000  0.00000  0.00000  1.0000
  Nb  Nb1       1.0  0.10000  0.10000  0.10000  1.0000
  Mo  Mo1       1.0  0.00000  0.00000  0.20000  1.0000
  Nb  Nb2       1.0  0.10000  0.10000  0.30000  1.0000
  W   W1        1.0  0.00000  0.00000  0.40000  1.0000
  W   W2        1.0  0.10000  0.10000  0.50000  1.0000
  Ti  Ti2       1.0  0.00000  0.00000  0.60000  1.0000
  Ta  Ta1       1.0  0.10000  0.10000  0.70000  1.0000
  Ta  Ta2       1.0  0.00000  0.00000  0.80000  1.0000
  Ti  Ti3       1.0  0.10000  0.10000  0.90000  1.0000
  Ti  Ti4       1.0  0.00000  0.20000  0.00000  1.0000
  W   W3        1.0  0.10000  0.30000  0.10000  1.0000
  Ti  Ti5       1.0  0.00000  0.20000  0.20000  1.0000
  Mo  Mo2       1.0  0.10000  0.30000  0.30000  1.0000
  W   W4        1.0  0.00000  0.20000  0.40000  1.0000
  Ti  Ti6       1.0  0.10000  0.30000  0.50000  1.0000
  W   W5        1.0  0.00000  0.20000  0.60000  1.0000
  Ti  Ti7       1.0  0.10000  0.30000  0.70000  1.0000
  W   W6        1.0  0.00000  0.20000  0.80000  1.0000
  Ti  Ti8       1.0  0.10000  0.30000  0.90000  1.0000
  W   W7        1.0  0.00000  0.40000  0.00000  1.0000
  W   W8        1.0  0.10000  0.50000  0.10000  1.0000
  Ta  Ta3       1.0  0.00000  0.40000  0.20000  1.0000
  Ti  Ti9       1.0  0.10000  0.50000  0.30000  1.0000
  W   W9        1.0  0.00000  0.40000  0.40000  1.0000
  Nb  Nb3       1.0  0.10000  0.50000  0.50000  1.0000
  Ta  Ta4       1.0  0.00000  0.40000  0.60000  1.0000
  Ta  Ta5       1.0  0.10000  0.50000  0.70000  1.0000
  W   W10       1.0  0.00000  0.40000  0.80000  1.0000
  W   W11       1.0  0.10000  0.50000  0.90000  1.0000
  Mo  Mo3       1.0  0.00000  0.60000  0.00000  1.0000
  Nb  Nb4       1.0  0.10000  0.70000  0.10000  1.0000
  Nb  Nb5       1.0  0.00000  0.60000  0.20000  1.0000
  Ta  Ta6       1.0  0.10000  0.70000  0.30000  1.0000
  W   W12       1.0  0.00000  0.60000  0.40000  1.0000
  Mo  Mo4       1.0  0.10000  0.70000  0.50000  1.0000
  W   W13       1.0  0.00000  0.60000  0.60000  1.0000
  Ta  Ta7       1.0  0.10000  0.70000  0.70000  1.0000
  Nb  Nb6       1.0  0.00000  0.60000  0.80000  1.0000
  Mo  Mo5       1.0  0.10000  0.70000  0.90000  1.0000
  Nb  Nb7       1.0  0.00000  0.80000  0.00000  1.0000
  Ti  Ti10      1.0  0.10000  0.90000  0.10000  1.0000
  Mo  Mo6       1.0  0.00000  0.80000  0.20000  1.0000
  Ta  Ta8       1.0  0.10000  0.90000  0.30000  1.0000
  Nb  Nb8       1.0  0.00000  0.80000  0.40000  1.0000
  W   W14       1.0  0.10000  0.90000  0.50000  1.0000
  W   W15       1.0  0.00000  0.80000  0.60000  1.0000
  Mo  Mo7       1.0  0.10000  0.90000  0.70000  1.0000
  Mo  Mo8       1.0  0.00000  0.80000  0.80000  1.0000
  W   W16       1.0  0.10000  0.90000  0.90000  1.0000
  W   W17       1.0  0.20000  0.00000  0.00000  1.0000
  Ta  Ta9       1.0  0.30000  0.10000  0.10000  1.0000
  W   W18       1.0  0.20000  0.00000  0.20000  1.0000
  W   W19       1.0  0.30000  0.10000  0.30000  1.0000
  W   W20       1.0  0.20000  0.00000  0.40000  1.0000
  Mo  Mo9       1.0  0.30000  0.10000  0.50000  1.0000
  Mo  Mo10      1.0  0.20000  0.00000  0.60000  1.0000
  Mo  Mo11      1.0  0.30000  0.10000  0.70000  1.0000
  W   W21       1.0  0.20000  0.00000  0.80000  1.0000
  Mo  Mo12      1.0  0.30000  0.10000  0.90000  1.0000
  Nb  Nb9       1.0  0.20000  0.20000  0.00000  1.0000
  Nb  Nb10      1.0  0.30000  0.30000  0.10000  1.0000
  Nb  Nb11      1.0  0.20000  0.20000  0.20000  1.0000
  Mo  Mo13      1.0  0.30000  0.30000  0.30000  1.0000
  Mo  Mo14      1.0  0.20000  0.20000  0.40000  1.0000
  Ta  Ta10      1.0  0.30000  0.30000  0.50000  1.0000
  Ti  Ti11      1.0  0.20000  0.20000  0.60000  1.0000
  W   W22       1.0  0.30000  0.30000  0.70000  1.0000
  Nb  Nb12      1.0  0.20000  0.20000  0.80000  1.0000
  W   W23       1.0  0.30000  0.30000  0.90000  1.0000
  Mo  Mo15      1.0  0.20000  0.40000  0.00000  1.0000
  W   W24       1.0  0.30000  0.50000  0.10000  1.0000
  W   W25       1.0  0.20000  0.40000  0.20000  1.0000
  Mo  Mo16      1.0  0.30000  0.50000  0.30000  1.0000
  Ta  Ta11      1.0  0.20000  0.40000  0.40000  1.0000
  Nb  Nb13      1.0  0.30000  0.50000  0.50000  1.0000
  Nb  Nb14      1.0  0.20000  0.40000  0.60000  1.0000
  Mo  Mo17      1.0  0.30000  0.50000  0.70000  1.0000
  Nb  Nb15      1.0  0.20000  0.40000  0.80000  1.0000
  W   W26       1.0  0.30000  0.50000  0.90000  1.0000
  Nb  Nb16      1.0  0.20000  0.60000  0.00000  1.0000
  Nb  Nb17      1.0  0.30000  0.70000  0.10000  1.0000
  W   W27       1.0  0.20000  0.60000  0.20000  1.0000
  Mo  Mo18      1.0  0.30000  0.70000  0.30000  1.0000
  Ta  Ta12      1.0  0.20000  0.60000  0.40000  1.0000
  W   W28       1.0  0.30000  0.70000  0.50000  1.0000
  Ta  Ta13      1.0  0.20000  0.60000  0.60000  1.0000
  W   W29       1.0  0.30000  0.70000  0.70000  1.0000
  Ti  Ti12      1.0  0.20000  0.60000  0.80000  1.0000
  Ti  Ti13      1.0  0.30000  0.70000  0.90000  1.0000
  W   W30       1.0  0.20000  0.80000  0.00000  1.0000
  Ti  Ti14      1.0  0.30000  0.90000  0.10000  1.0000
  Nb  Nb18      1.0  0.20000  0.80000  0.20000  1.0000
  Ta  Ta14      1.0  0.30000  0.90000  0.30000  1.0000
  Ta  Ta15      1.0  0.20000  0.80000  0.40000  1.0000
  W   W31       1.0  0.30000  0.90000  0.50000  1.0000
  Mo  Mo19      1.0  0.20000  0.80000  0.60000  1.0000
  W   W32       1.0  0.30000  0.90000  0.70000  1.0000
  Nb  Nb19      1.0  0.20000  0.80000  0.80000  1.0000
  Nb  Nb20      1.0  0.30000  0.90000  0.90000  1.0000
  Mo  Mo20      1.0  0.40000  0.00000  0.00000  1.0000
  Ti  Ti15      1.0  0.50000  0.10000  0.10000  1.0000
  W   W33       1.0  0.40000  0.00000  0.20000  1.0000
  Ta  Ta16      1.0  0.50000  0.10000  0.30000  1.0000
  Mo  Mo21      1.0  0.40000  0.00000  0.40000  1.0000
  W   W34       1.0  0.50000  0.10000  0.50000  1.0000
  Mo  Mo22      1.0  0.40000  0.00000  0.60000  1.0000
  Nb  Nb21      1.0  0.50000  0.10000  0.70000  1.0000
  Nb  Nb22      1.0  0.40000  0.00000  0.80000  1.0000
  Ti  Ti16      1.0  0.50000  0.10000  0.90000  1.0000
  Ta  Ta17      1.0  0.40000  0.20000  0.00000  1.0000
  Ti  Ti17      1.0  0.50000  0.30000  0.10000  1.0000
  Nb  Nb23      1.0  0.40000  0.20000  0.20000  1.0000
  Mo  Mo23      1.0  0.50000  0.30000  0.30000  1.0000
  W   W35       1.0  0.40000  0.20000  0.40000  1.0000
  W   W36       1.0  0.50000  0.30000  0.50000  1.0000
  Nb  Nb24      1.0  0.40000  0.20000  0.60000  1.0000
  Nb  Nb25      1.0  0.50000  0.30000  0.70000  1.0000
  W   W37       1.0  0.40000  0.20000  0.80000  1.0000
  Nb  Nb26      1.0  0.50000  0.30000  0.90000  1.0000
  Ta  Ta18      1.0  0.40000  0.40000  0.00000  1.0000
  Ta  Ta19      1.0  0.50000  0.50000  0.10000  1.0000
  Nb  Nb27      1.0  0.40000  0.40000  0.20000  1.0000
  W   W38       1.0  0.50000  0.50000  0.30000  1.0000
  W   W39       1.0  0.40000  0.40000  0.40000  1.0000
  Ti  Ti18      1.0  0.50000  0.50000  0.50000  1.0000
  Mo  Mo24      1.0  0.40000  0.40000  0.60000  1.0000
  Nb  Nb28      1.0  0.50000  0.50000  0.70000  1.0000
  Ta  Ta20      1.0  0.40000  0.40000  0.80000  1.0000
  Ta  Ta21      1.0  0.50000  0.50000  0.90000  1.0000
  Ti  Ti19      1.0  0.40000  0.60000  0.00000  1.0000
  W   W40       1.0  0.50000  0.70000  0.10000  1.0000
  W   W41       1.0  0.40000  0.60000  0.20000  1.0000
  Ta  Ta22      1.0  0.50000  0.70000  0.30000  1.0000
  Mo  Mo25      1.0  0.40000  0.60000  0.40000  1.0000
  W   W42       1.0  0.50000  0.70000  0.50000  1.0000
  Ta  Ta23      1.0  0.40000  0.60000  0.60000  1.0000
  W   W43       1.0  0.50000  0.70000  0.70000  1.0000
  Ti  Ti20      1.0  0.40000  0.60000  0.80000  1.0000
  Ta  Ta24      1.0  0.50000  0.70000  0.90000  1.0000
  W   W44       1.0  0.40000  0.80000  0.00000  1.0000
  Ta  Ta25      1.0  0.50000  0.90000  0.10000  1.0000
  Ti  Ti21      1.0  0.40000  0.80000  0.20000  1.0000
  W   W45       1.0  0.50000  0.90000  0.30000  1.0000
  W   W46       1.0  0.40000  0.80000  0.40000  1.0000
  Ti  Ti22      1.0  0.50000  0.90000  0.50000  1.0000
  Ti  Ti23      1.0  0.40000  0.80000  0.60000  1.0000
  Nb  Nb29      1.0  0.50000  0.90000  0.70000  1.0000
  Ti  Ti24      1.0  0.40000  0.80000  0.80000  1.0000
  Nb  Nb30      1.0  0.50000  0.90000  0.90000  1.0000
  Ti  Ti25      1.0  0.60000  0.00000  0.00000  1.0000
  W   W47       1.0  0.70000  0.10000  0.10000  1.0000
  Ti  Ti26      1.0  0.60000  0.00000  0.20000  1.0000
  Mo  Mo26      1.0  0.70000  0.10000  0.30000  1.0000
  Ti  Ti27      1.0  0.60000  0.00000  0.40000  1.0000
  Mo  Mo27      1.0  0.70000  0.10000  0.50000  1.0000
  Ti  Ti28      1.0  0.60000  0.00000  0.60000  1.0000
  Mo  Mo28      1.0  0.70000  0.10000  0.70000  1.0000
  W   W48       1.0  0.60000  0.00000  0.80000  1.0000
  W   W49       1.0  0.70000  0.10000  0.90000  1.0000
  Ta  Ta26      1.0  0.60000  0.20000  0.00000  1.0000
  W   W50       1.0  0.70000  0.30000  0.10000  1.0000
  W   W51       1.0  0.60000  0.20000  0.20000  1.0000
  Mo  Mo29      1.0  0.70000  0.30000  0.30000  1.0000
  Nb  Nb31      1.0  0.60000  0.20000  0.40000  1.0000
  W   W52       1.0  0.70000  0.30000  0.50000  1.0000
  Ta  Ta27      1.0  0.60000  0.20000  0.60000  1.0000
  Nb  Nb32      1.0  0.70000  0.30000  0.70000  1.0000
  Nb  Nb33      1.0  0.60000  0.20000  0.80000  1.0000
  W   W53       1.0  0.70000  0.30000  0.90000  1.0000
  Mo  Mo30      1.0  0.60000  0.40000  0.00000  1.0000
  Nb  Nb34      1.0  0.70000  0.50000  0.10000  1.0000
  Ti  Ti29      1.0  0.60000  0.40000  0.20000  1.0000
  Mo  Mo31      1.0  0.70000  0.50000  0.30000  1.0000
  Ta  Ta28      1.0  0.60000  0.40000  0.40000  1.0000
  W   W54       1.0  0.70000  0.50000  0.50000  1.0000
  Ti  Ti30      1.0  0.60000  0.40000  0.60000  1.0000
  Mo  Mo32      1.0  0.70000  0.50000  0.70000  1.0000
  Mo  Mo33      1.0  0.60000  0.40000  0.80000  1.0000
  Nb  Nb35      1.0  0.70000  0.50000  0.90000  1.0000
  Nb  Nb36      1.0  0.60000  0.60000  0.00000  1.0000
  Mo  Mo34      1.0  0.70000  0.70000  0.10000  1.0000
  Ta  Ta29      1.0  0.60000  0.60000  0.20000  1.0000
  W   W55       1.0  0.70000  0.70000  0.30000  1.0000
  Nb  Nb37      1.0  0.60000  0.60000  0.40000  1.0000
  Ti  Ti31      1.0  0.70000  0.70000  0.50000  1.0000
  Ta  Ta30      1.0  0.60000  0.60000  0.60000  1.0000
  W   W56       1.0  0.70000  0.70000  0.70000  1.0000
  Mo  Mo35      1.0  0.60000  0.60000  0.80000  1.0000
  Nb  Nb38      1.0  0.70000  0.70000  0.90000  1.0000
  W   W57       1.0  0.60000  0.80000  0.00000  1.0000
  Mo  Mo36      1.0  0.70000  0.90000  0.10000  1.0000
  Mo  Mo37      1.0  0.60000  0.80000  0.20000  1.0000
  Nb  Nb39      1.0  0.70000  0.90000  0.30000  1.0000
  Mo  Mo38      1.0  0.60000  0.80000  0.40000  1.0000
  Ti  Ti32      1.0  0.70000  0.90000  0.50000  1.0000
  Ta  Ta31      1.0  0.60000  0.80000  0.60000  1.0000
  W   W58       1.0  0.70000  0.90000  0.70000  1.0000
  Ta  Ta32      1.0  0.60000  0.80000  0.80000  1.0000
  Nb  Nb40      1.0  0.70000  0.90000  0.90000  1.0000
  W   W59       1.0  0.80000  0.00000  0.00000  1.0000
  Ti  Ti33      1.0  0.90000  0.10000  0.10000  1.0000
  Ti  Ti34      1.0  0.80000  0.00000  0.20000  1.0000
  Nb  Nb41      1.0  0.90000  0.10000  0.30000  1.0000
  Ti  Ti35      1.0  0.80000  0.00000  0.40000  1.0000
  Nb  Nb42      1.0  0.90000  0.10000  0.50000  1.0000
  W   W60       1.0  0.80000  0.00000  0.60000  1.0000
  W   W61       1.0  0.90000  0.10000  0.70000  1.0000
  Nb  Nb43      1.0  0.80000  0.00000  0.80000  1.0000
  Ta  Ta33      1.0  0.90000  0.10000  0.90000  1.0000
  Mo  Mo39      1.0  0.80000  0.20000  0.00000  1.0000
  W   W62       1.0  0.90000  0.30000  0.10000  1.0000
  Ta  Ta34      1.0  0.80000  0.20000  0.20000  1.0000
  W   W63       1.0  0.90000  0.30000  0.30000  1.0000
  Mo  Mo40      1.0  0.80000  0.20000  0.40000  1.0000
  W   W64       1.0  0.90000  0.30000  0.50000  1.0000
  W   W65       1.0  0.80000  0.20000  0.60000  1.0000
  Mo  Mo41      1.0  0.90000  0.30000  0.70000  1.0000
  Mo  Mo42      1.0  0.80000  0.20000  0.80000  1.0000
  W   W66       1.0  0.90000  0.30000  0.90000  1.0000
  W   W67       1.0  0.80000  0.40000  0.00000  1.0000
  Mo  Mo43      1.0  0.90000  0.50000  0.10000  1.0000
  Ti  Ti36      1.0  0.80000  0.40000  0.20000  1.0000
  W   W68       1.0  0.90000  0.50000  0.30000  1.0000
  Mo  Mo44      1.0  0.80000  0.40000  0.40000  1.0000
  Ta  Ta35      1.0  0.90000  0.50000  0.50000  1.0000
  Nb  Nb44      1.0  0.80000  0.40000  0.60000  1.0000
  Mo  Mo45      1.0  0.90000  0.50000  0.70000  1.0000
  Mo  Mo46      1.0  0.80000  0.40000  0.80000  1.0000
  Ti  Ti37      1.0  0.90000  0.50000  0.90000  1.0000
  W   W69       1.0  0.80000  0.60000  0.00000  1.0000
  Nb  Nb45      1.0  0.90000  0.70000  0.10000  1.0000
  Ta  Ta36      1.0  0.80000  0.60000  0.20000  1.0000
  Nb  Nb46      1.0  0.90000  0.70000  0.30000  1.0000
  Ta  Ta37      1.0  0.80000  0.60000  0.40000  1.0000
  Nb  Nb47      1.0  0.90000  0.70000  0.50000  1.0000
  Nb  Nb48      1.0  0.80000  0.60000  0.60000  1.0000
  Mo  Mo47      1.0  0.90000  0.70000  0.70000  1.0000
  Mo  Mo48      1.0  0.80000  0.60000  0.80000  1.0000
  Ti  Ti38      1.0  0.90000  0.70000  0.90000  1.0000
  Ta  Ta38      1.0  0.80000  0.80000  0.00000  1.0000
  Ti  Ti39      1.0  0.90000  0.90000  0.10000  1.0000
  Nb  Nb49      1.0  0.80000  0.80000  0.20000  1.0000
  Nb  Nb50      1.0  0.90000  0.90000  0.30000  1.0000
  Ti  Ti40      1.0  0.80000  0.80000  0.40000  1.0000
  Ta  Ta39      1.0  0.90000  0.90000  0.50000  1.0000
  Ta  Ta40      1.0  0.80000  0.80000  0.60000  1.0000
  W   W70       1.0  0.90000  0.90000  0.70000  1.0000
  Mo  Mo49      1.0  0.80000  0.80000  0.80000  1.0000
  Mo  Mo50      1.0  0.90000  0.90000  0.90000  1.0000
