data_image0
_chemical_formula_structural       Si2Cr3Fe2Cr2Si2FeCr2SiFe2CrSiFe2Cr2FeCr3SiCr3SiCrFe2Cr2SiFeCr4FeCr3Si2Cr3
_chemical_formula_sum              "Si11 Cr29 Fe12"
_cell_length_a       2.28586
_cell_length_b       2.28586
_cell_length_c       85.1309
_cell_angle_alpha    85.3796
_cell_angle_beta     62.8405
_cell_angle_gamma    90

_space_group_name_H-M_alt    "P 1"
_space_group_IT_number       1

loop_
  _space_group_symop_operation_xyz
  'x, y, z'

loop_
  _atom_site_type_symbol
  _atom_site_label
  _atom_site_symmetry_multiplicity
  _atom_site_fract_x
  _atom_site_fract_y
  _atom_site_fract_z
  _atom_site_occupancy
  Si  Si1       1.0  0.32228  0.15759  0.02201  1.0000
  Si  Si2       1.0  0.05289  0.04931  0.00423  1.0000
  Cr  Cr1       1.0  0.74820  0.14396  0.04210  1.0000
  Cr  Cr2       1.0  0.48661  0.65761  0.08673  1.0000
  Cr  Cr3       1.0  0.38254  0.91052  0.06612  1.0000
  Fe  Fe1       1.0  0.78694  0.08997  0.11816  1.0000
  Fe  Fe2       1.0  0.32317  0.97712  0.14755  1.0000
  Cr  Cr4       1.0  0.25970  0.49632  0.12140  1.0000
  Cr  Cr5       1.0  0.20925  0.27935  0.09952  1.0000
  Si  Si3       1.0  0.20529  0.38458  0.16939  1.0000
  Si  Si4       1.0  0.38632  0.23716  0.19174  1.0000
  Fe  Fe3       1.0  0.05950  0.33416  0.23027  1.0000
  Cr  Cr6       1.0  0.49322  0.86251  0.25163  1.0000
  Cr  Cr7       1.0  0.58015  0.54286  0.20715  1.0000
  Si  Si5       1.0  0.91635  0.30752  0.29969  1.0000
  Fe  Fe4       1.0  0.31309  0.59397  0.27514  1.0000
  Fe  Fe5       1.0  0.06638  0.58849  0.34093  1.0000
  Cr  Cr8       1.0  0.03973  0.02525  0.32203  1.0000
  Si  Si6       1.0  0.93623  0.72732  0.39357  1.0000
  Fe  Fe6       1.0  0.38206  0.38394  0.43931  1.0000
  Fe  Fe7       1.0  0.26254  0.63393  0.36227  1.0000
  Cr  Cr9       1.0  0.33329  0.06797  0.42048  1.0000
  Cr  Cr10      1.0  0.61794  0.22371  0.37645  1.0000
  Fe  Fe8       1.0  0.75374  0.37038  0.46548  1.0000
  Cr  Cr11      1.0  0.15309  0.50602  0.48375  1.0000
  Cr  Cr12      1.0  0.61575  0.02685  0.53059  1.0000
  Cr  Cr13      1.0  0.72133  0.92989  0.49930  1.0000
  Si  Si7       1.0  0.94650  0.24335  0.62956  1.0000
  Cr  Cr14      1.0  0.14273  0.69355  0.57822  1.0000
  Cr  Cr15      1.0  0.96942  0.77645  0.61675  1.0000
  Cr  Cr16      1.0  0.25775  0.03446  0.59745  1.0000
  Si  Si8       1.0  0.99037  0.14606  0.69314  1.0000
  Cr  Cr17      1.0  0.54772  0.15608  0.65160  1.0000
  Fe  Fe9       1.0  0.51005  0.66229  0.72871  1.0000
  Fe  Fe10      1.0  0.64680  0.87098  0.67667  1.0000
  Cr  Cr18      1.0  0.03822  0.88709  0.64796  1.0000
  Cr  Cr19      1.0  0.26373  0.79852  0.71188  1.0000
  Si  Si9       1.0  0.48448  0.27683  0.74199  1.0000
  Fe  Fe11      1.0  0.04626  0.09476  0.77534  1.0000
  Cr  Cr20      1.0  0.30634  0.58198  0.79486  1.0000
  Cr  Cr21      1.0  0.72582  0.23225  0.75419  1.0000
  Cr  Cr22      1.0  0.20766  0.93719  0.81824  1.0000
  Cr  Cr23      1.0  0.42995  0.45540  0.82926  1.0000
  Fe  Fe12      1.0  0.89711  0.96589  0.84961  1.0000
  Cr  Cr24      1.0  0.51584  0.07507  0.88631  1.0000
  Cr  Cr25      1.0  0.92693  0.91584  0.86824  1.0000
  Cr  Cr26      1.0  0.65476  0.47980  0.90394  1.0000
  Si  Si10      1.0  0.56985  0.00905  0.96925  1.0000
  Si  Si11      1.0  0.62662  0.08898  0.99500  1.0000
  Cr  Cr27      1.0  0.29058  0.69974  0.95580  1.0000
  Cr  Cr28      1.0  0.23485  0.23986  0.93281  1.0000
  Cr  Cr29      1.0  0.26374  0.69273  0.91003  1.0000
