data_image0
_chemical_formula_structural       WNbW2NbW2MoNb2WMoNbWNb2TiMoW2TiNbW2TiW3NbW2TiMoW4TiWTiNbMoWMoW2TiNbWNbMoNbW4TiWNb2W2MoNb
_chemical_formula_sum              "W32 Nb16 Mo8 Ti8"
_cell_length_a       10.9466
_cell_length_b       10.9466
_cell_length_c       10.9466
_cell_angle_alpha    109.471
_cell_angle_beta     109.471
_cell_angle_gamma    109.471

_space_group_name_H-M_alt    "P 1"
_space_group_IT_number       1

loop_
  _space_group_symop_operation_xyz
  'x, y, z'

loop_
  _atom_site_type_symbol
  _atom_site_label
  _atom_site_symmetry_multiplicity
  _atom_site_fract_x
  _atom_site_fract_y
  _atom_site_fract_z
  _atom_site_occupancy
  W   W1        1.0  0.00000  0.00000  0.00000  1.0000
  Nb  Nb1       1.0  0.00000  0.00000  0.25000  1.0000
  W   W2        1.0  1.00000  0.00000  0.50000  1.0000
  W   W3        1.0  0.00000  0.00000  0.75000  1.0000
  Nb  Nb2       1.0  0.00000  0.25000  0.00000  1.0000
  W   W4        1.0  1.00000  0.25000  0.25000  1.0000
  W   W5        1.0  1.00000  0.25000  0.50000  1.0000
  Mo  Mo1       1.0  0.00000  0.25000  0.75000  1.0000
  Nb  Nb3       1.0  1.00000  0.50000  0.00000  1.0000
  Nb  Nb4       1.0  1.00000  0.50000  0.25000  1.0000
  W   W6        1.0  1.00000  0.50000  0.50000  1.0000
  Mo  Mo2       1.0  1.00000  0.50000  0.75000  1.0000
  Nb  Nb5       1.0  0.00000  0.75000  0.00000  1.0000
  W   W7        1.0  0.00000  0.75000  0.25000  1.0000
  Nb  Nb6       1.0  0.00000  0.75000  0.50000  1.0000
  Nb  Nb7       1.0  1.00000  0.75000  0.75000  1.0000
  Ti  Ti1       1.0  0.25000  0.00000  0.00000  1.0000
  Mo  Mo3       1.0  0.25000  0.00000  0.25000  1.0000
  W   W8        1.0  0.25000  0.00000  0.50000  1.0000
  W   W9        1.0  0.25000  0.00000  0.75000  1.0000
  Ti  Ti2       1.0  0.25000  0.25000  0.00000  1.0000
  Nb  Nb8       1.0  0.25000  0.25000  0.25000  1.0000
  W   W10       1.0  0.25000  0.25000  0.50000  1.0000
  W   W11       1.0  0.25000  0.25000  0.75000  1.0000
  Ti  Ti3       1.0  0.25000  0.50000  0.00000  1.0000
  W   W12       1.0  0.25000  0.50000  0.25000  1.0000
  W   W13       1.0  0.25000  0.50000  0.50000  1.0000
  W   W14       1.0  0.25000  0.50000  0.75000  1.0000
  Nb  Nb9       1.0  0.25000  0.75000  0.00000  1.0000
  W   W15       1.0  0.25000  0.75000  0.25000  1.0000
  W   W16       1.0  0.25000  0.75000  0.50000  1.0000
  Ti  Ti4       1.0  0.25000  0.75000  0.75000  1.0000
  Mo  Mo4       1.0  0.50000  0.00000  0.00000  1.0000
  W   W17       1.0  0.50000  0.00000  0.25000  1.0000
  W   W18       1.0  0.50000  0.00000  0.50000  1.0000
  W   W19       1.0  0.50000  0.00000  0.75000  1.0000
  W   W20       1.0  0.50000  0.25000  0.00000  1.0000
  Ti  Ti5       1.0  0.50000  0.25000  0.25000  1.0000
  W   W21       1.0  0.50000  0.25000  0.50000  1.0000
  Ti  Ti6       1.0  0.50000  0.25000  0.75000  1.0000
  Nb  Nb10      1.0  0.50000  0.50000  0.00000  1.0000
  Mo  Mo5       1.0  0.50000  0.50000  0.25000  1.0000
  W   W22       1.0  0.50000  0.50000  0.50000  1.0000
  Mo  Mo6       1.0  0.50000  0.50000  0.75000  1.0000
  W   W23       1.0  0.50000  0.75000  0.00000  1.0000
  W   W24       1.0  0.50000  0.75000  0.25000  1.0000
  Ti  Ti7       1.0  0.50000  0.75000  0.50000  1.0000
  Nb  Nb11      1.0  0.50000  0.75000  0.75000  1.0000
  W   W25       1.0  0.75000  0.00000  0.00000  1.0000
  Nb  Nb12      1.0  0.75000  0.00000  0.25000  1.0000
  Mo  Mo7       1.0  0.75000  0.00000  0.50000  1.0000
  Nb  Nb13      1.0  0.75000  0.00000  0.75000  1.0000
  W   W26       1.0  0.75000  0.25000  0.00000  1.0000
  W   W27       1.0  0.75000  0.25000  0.25000  1.0000
  W   W28       1.0  0.75000  0.25000  0.50000  1.0000
  W   W29       1.0  0.75000  0.25000  0.75000  1.0000
  Ti  Ti8       1.0  0.75000  0.50000  0.00000  1.0000
  W   W30       1.0  0.75000  0.50000  0.25000  1.0000
  Nb  Nb14      1.0  0.75000  0.50000  0.50000  1.0000
  Nb  Nb15      1.0  0.75000  0.50000  0.75000  1.0000
  W   W31       1.0  0.75000  0.75000  0.00000  1.0000
  W   W32       1.0  0.75000  0.75000  0.25000  1.0000
  Mo  Mo8       1.0  0.75000  0.75000  0.50000  1.0000
  Nb  Nb16      1.0  0.75000  0.75000  0.75000  1.0000
