data_image0
_chemical_formula_structural       WMo2TaMoTa2Mo3TaMo6WTa3Mo2TaMoTaMoTaMo5TaMoTaMo2WTaMoTaMo2W2TaMo2WTa2WMoWTa2Mo2Ta5
_chemical_formula_sum              "W8 Mo32 Ta24"
_cell_length_a       10.9466
_cell_length_b       10.9466
_cell_length_c       10.9466
_cell_angle_alpha    109.471
_cell_angle_beta     109.471
_cell_angle_gamma    109.471

_space_group_name_H-M_alt    "P 1"
_space_group_IT_number       1

loop_
  _space_group_symop_operation_xyz
  'x, y, z'

loop_
  _atom_site_type_symbol
  _atom_site_label
  _atom_site_symmetry_multiplicity
  _atom_site_fract_x
  _atom_site_fract_y
  _atom_site_fract_z
  _atom_site_occupancy
  W   W1        1.0  0.00000  0.00000  0.00000  1.0000
  Mo  Mo1       1.0  0.00000  0.00000  0.25000  1.0000
  Mo  Mo2       1.0  1.00000  0.00000  0.50000  1.0000
  Ta  Ta1       1.0  0.00000  0.00000  0.75000  1.0000
  Mo  Mo3       1.0  0.00000  0.25000  0.00000  1.0000
  Ta  Ta2       1.0  1.00000  0.25000  0.25000  1.0000
  Ta  Ta3       1.0  1.00000  0.25000  0.50000  1.0000
  Mo  Mo4       1.0  0.00000  0.25000  0.75000  1.0000
  Mo  Mo5       1.0  1.00000  0.50000  0.00000  1.0000
  Mo  Mo6       1.0  1.00000  0.50000  0.25000  1.0000
  Ta  Ta4       1.0  1.00000  0.50000  0.50000  1.0000
  Mo  Mo7       1.0  1.00000  0.50000  0.75000  1.0000
  Mo  Mo8       1.0  0.00000  0.75000  0.00000  1.0000
  Mo  Mo9       1.0  0.00000  0.75000  0.25000  1.0000
  Mo  Mo10      1.0  0.00000  0.75000  0.50000  1.0000
  Mo  Mo11      1.0  1.00000  0.75000  0.75000  1.0000
  Mo  Mo12      1.0  0.25000  0.00000  0.00000  1.0000
  W   W2        1.0  0.25000  0.00000  0.25000  1.0000
  Ta  Ta5       1.0  0.25000  0.00000  0.50000  1.0000
  Ta  Ta6       1.0  0.25000  0.00000  0.75000  1.0000
  Ta  Ta7       1.0  0.25000  0.25000  0.00000  1.0000
  Mo  Mo13      1.0  0.25000  0.25000  0.25000  1.0000
  Mo  Mo14      1.0  0.25000  0.25000  0.50000  1.0000
  Ta  Ta8       1.0  0.25000  0.25000  0.75000  1.0000
  Mo  Mo15      1.0  0.25000  0.50000  0.00000  1.0000
  Ta  Ta9       1.0  0.25000  0.50000  0.25000  1.0000
  Mo  Mo16      1.0  0.25000  0.50000  0.50000  1.0000
  Ta  Ta10      1.0  0.25000  0.50000  0.75000  1.0000
  Mo  Mo17      1.0  0.25000  0.75000  0.00000  1.0000
  Mo  Mo18      1.0  0.25000  0.75000  0.25000  1.0000
  Mo  Mo19      1.0  0.25000  0.75000  0.50000  1.0000
  Mo  Mo20      1.0  0.25000  0.75000  0.75000  1.0000
  Mo  Mo21      1.0  0.50000  0.00000  0.00000  1.0000
  Ta  Ta11      1.0  0.50000  0.00000  0.25000  1.0000
  Mo  Mo22      1.0  0.50000  0.00000  0.50000  1.0000
  Ta  Ta12      1.0  0.50000  0.00000  0.75000  1.0000
  Mo  Mo23      1.0  0.50000  0.25000  0.00000  1.0000
  Mo  Mo24      1.0  0.50000  0.25000  0.25000  1.0000
  W   W3        1.0  0.50000  0.25000  0.50000  1.0000
  Ta  Ta13      1.0  0.50000  0.25000  0.75000  1.0000
  Mo  Mo25      1.0  0.50000  0.50000  0.00000  1.0000
  Ta  Ta14      1.0  0.50000  0.50000  0.25000  1.0000
  Mo  Mo26      1.0  0.50000  0.50000  0.50000  1.0000
  Mo  Mo27      1.0  0.50000  0.50000  0.75000  1.0000
  W   W4        1.0  0.50000  0.75000  0.00000  1.0000
  W   W5        1.0  0.50000  0.75000  0.25000  1.0000
  Ta  Ta15      1.0  0.50000  0.75000  0.50000  1.0000
  Mo  Mo28      1.0  0.50000  0.75000  0.75000  1.0000
  Mo  Mo29      1.0  0.75000  0.00000  0.00000  1.0000
  W   W6        1.0  0.75000  0.00000  0.25000  1.0000
  Ta  Ta16      1.0  0.75000  0.00000  0.50000  1.0000
  Ta  Ta17      1.0  0.75000  0.00000  0.75000  1.0000
  W   W7        1.0  0.75000  0.25000  0.00000  1.0000
  Mo  Mo30      1.0  0.75000  0.25000  0.25000  1.0000
  W   W8        1.0  0.75000  0.25000  0.50000  1.0000
  Ta  Ta18      1.0  0.75000  0.25000  0.75000  1.0000
  Ta  Ta19      1.0  0.75000  0.50000  0.00000  1.0000
  Mo  Mo31      1.0  0.75000  0.50000  0.25000  1.0000
  Mo  Mo32      1.0  0.75000  0.50000  0.50000  1.0000
  Ta  Ta20      1.0  0.75000  0.50000  0.75000  1.0000
  Ta  Ta21      1.0  0.75000  0.75000  0.00000  1.0000
  Ta  Ta22      1.0  0.75000  0.75000  0.25000  1.0000
  Ta  Ta23      1.0  0.75000  0.75000  0.50000  1.0000
  Ta  Ta24      1.0  0.75000  0.75000  0.75000  1.0000
