data_image0
_chemical_formula_structural       Ta12WTa7WTaW3Ta8W2Ta4WTa2WTaW2Ta2W2Ta5WTa5W2Ta
_chemical_formula_sum              "Ta48 W16"
_cell_length_a       10.9466
_cell_length_b       10.9466
_cell_length_c       10.9466
_cell_angle_alpha    109.471
_cell_angle_beta     109.471
_cell_angle_gamma    109.471

_space_group_name_H-M_alt    "P 1"
_space_group_IT_number       1

loop_
  _space_group_symop_operation_xyz
  'x, y, z'

loop_
  _atom_site_type_symbol
  _atom_site_label
  _atom_site_symmetry_multiplicity
  _atom_site_fract_x
  _atom_site_fract_y
  _atom_site_fract_z
  _atom_site_occupancy
  Ta  Ta1       1.0  0.00000  0.00000  0.00000  1.0000
  Ta  Ta2       1.0  0.00000  0.00000  0.25000  1.0000
  Ta  Ta3       1.0  1.00000  0.00000  0.50000  1.0000
  Ta  Ta4       1.0  0.00000  0.00000  0.75000  1.0000
  Ta  Ta5       1.0  0.00000  0.25000  0.00000  1.0000
  Ta  Ta6       1.0  1.00000  0.25000  0.25000  1.0000
  Ta  Ta7       1.0  1.00000  0.25000  0.50000  1.0000
  Ta  Ta8       1.0  0.00000  0.25000  0.75000  1.0000
  Ta  Ta9       1.0  1.00000  0.50000  0.00000  1.0000
  Ta  Ta10      1.0  1.00000  0.50000  0.25000  1.0000
  Ta  Ta11      1.0  1.00000  0.50000  0.50000  1.0000
  Ta  Ta12      1.0  1.00000  0.50000  0.75000  1.0000
  W   W1        1.0  0.00000  0.75000  0.00000  1.0000
  Ta  Ta13      1.0  0.00000  0.75000  0.25000  1.0000
  Ta  Ta14      1.0  0.00000  0.75000  0.50000  1.0000
  Ta  Ta15      1.0  1.00000  0.75000  0.75000  1.0000
  Ta  Ta16      1.0  0.25000  0.00000  0.00000  1.0000
  Ta  Ta17      1.0  0.25000  0.00000  0.25000  1.0000
  Ta  Ta18      1.0  0.25000  0.00000  0.50000  1.0000
  Ta  Ta19      1.0  0.25000  0.00000  0.75000  1.0000
  W   W2        1.0  0.25000  0.25000  0.00000  1.0000
  Ta  Ta20      1.0  0.25000  0.25000  0.25000  1.0000
  W   W3        1.0  0.25000  0.25000  0.50000  1.0000
  W   W4        1.0  0.25000  0.25000  0.75000  1.0000
  W   W5        1.0  0.25000  0.50000  0.00000  1.0000
  Ta  Ta21      1.0  0.25000  0.50000  0.25000  1.0000
  Ta  Ta22      1.0  0.25000  0.50000  0.50000  1.0000
  Ta  Ta23      1.0  0.25000  0.50000  0.75000  1.0000
  Ta  Ta24      1.0  0.25000  0.75000  0.00000  1.0000
  Ta  Ta25      1.0  0.25000  0.75000  0.25000  1.0000
  Ta  Ta26      1.0  0.25000  0.75000  0.50000  1.0000
  Ta  Ta27      1.0  0.25000  0.75000  0.75000  1.0000
  Ta  Ta28      1.0  0.50000  0.00000  0.00000  1.0000
  W   W6        1.0  0.50000  0.00000  0.25000  1.0000
  W   W7        1.0  0.50000  0.00000  0.50000  1.0000
  Ta  Ta29      1.0  0.50000  0.00000  0.75000  1.0000
  Ta  Ta30      1.0  0.50000  0.25000  0.00000  1.0000
  Ta  Ta31      1.0  0.50000  0.25000  0.25000  1.0000
  Ta  Ta32      1.0  0.50000  0.25000  0.50000  1.0000
  W   W8        1.0  0.50000  0.25000  0.75000  1.0000
  Ta  Ta33      1.0  0.50000  0.50000  0.00000  1.0000
  Ta  Ta34      1.0  0.50000  0.50000  0.25000  1.0000
  W   W9        1.0  0.50000  0.50000  0.50000  1.0000
  Ta  Ta35      1.0  0.50000  0.50000  0.75000  1.0000
  W   W10       1.0  0.50000  0.75000  0.00000  1.0000
  W   W11       1.0  0.50000  0.75000  0.25000  1.0000
  Ta  Ta36      1.0  0.50000  0.75000  0.50000  1.0000
  Ta  Ta37      1.0  0.50000  0.75000  0.75000  1.0000
  W   W12       1.0  0.75000  0.00000  0.00000  1.0000
  W   W13       1.0  0.75000  0.00000  0.25000  1.0000
  Ta  Ta38      1.0  0.75000  0.00000  0.50000  1.0000
  Ta  Ta39      1.0  0.75000  0.00000  0.75000  1.0000
  Ta  Ta40      1.0  0.75000  0.25000  0.00000  1.0000
  Ta  Ta41      1.0  0.75000  0.25000  0.25000  1.0000
  Ta  Ta42      1.0  0.75000  0.25000  0.50000  1.0000
  W   W14       1.0  0.75000  0.25000  0.75000  1.0000
  Ta  Ta43      1.0  0.75000  0.50000  0.00000  1.0000
  Ta  Ta44      1.0  0.75000  0.50000  0.25000  1.0000
  Ta  Ta45      1.0  0.75000  0.50000  0.50000  1.0000
  Ta  Ta46      1.0  0.75000  0.50000  0.75000  1.0000
  Ta  Ta47      1.0  0.75000  0.75000  0.00000  1.0000
  W   W15       1.0  0.75000  0.75000  0.25000  1.0000
  W   W16       1.0  0.75000  0.75000  0.50000  1.0000
  Ta  Ta48      1.0  0.75000  0.75000  0.75000  1.0000
